 xtb: 6.7.1pre (5071a88)
          08202601083D

 76 76  0     0  0            999 V2000
    0.4062    0.1279    1.1029 N   0  0  0  0  0  0  0  0  0  0  0  0
    1.7563   -0.0914    0.7344 C   0  0  0  0  0  0  0  0  0  0  0  0
    2.7742    0.5796    1.4067 C   0  0  0  0  0  0  0  0  0  0  0  0
    4.0947    0.3697    1.0676 C   0  0  0  0  0  0  0  0  0  0  0  0
    4.4431   -0.5132    0.0509 C   0  0  0  0  0  0  0  0  0  0  0  0
    3.4290   -1.2092   -0.5918 C   0  0  0  0  0  0  0  0  0  0  0  0
    2.1032   -1.0107   -0.2499 C   0  0  0  0  0  0  0  0  0  0  0  0
    5.8786   -0.6666   -0.3667 C   0  0  0  0  0  0  0  0  0  0  0  0
    6.4481    0.6671   -0.8560 C   0  0  0  0  0  0  0  0  0  0  0  0
   -0.2860    1.2645    0.5374 C   0  0  0  0  0  0  0  0  0  0  0  0
    0.4922    2.5663    0.6817 C   0  0  0  0  0  0  0  0  0  0  0  0
   -0.3886    3.7993    0.4198 C   0  0  0  0  0  0  0  0  0  0  0  0
    0.4775    5.0341    0.1217 C   0  0  0  0  0  0  0  0  0  0  0  0
    0.8603    5.1145   -1.3555 C   0  0  0  0  0  0  0  0  0  0  0  0
    1.8604    6.2330   -1.6197 C   0  0  0  0  0  0  0  0  0  0  0  0
   -0.5485    1.0784   -0.8571 O   0  0  0  0  0  0  0  0  0  0  0  0
   -2.2455    4.5328    3.5409 N   0  0  0  0  0  0  0  0  0  0  0  0
   -3.2709    4.0424    2.7879 C   0  0  0  0  0  0  0  0  0  0  0  0
   -2.7363    3.6988    1.5229 C   0  0  0  0  0  0  0  0  0  0  0  0
   -1.3400    4.0140    1.5592 C   0  0  0  0  0  0  0  0  0  0  0  0
   -4.6124    3.8639    3.0954 C   0  0  0  0  0  0  0  0  0  0  0  0
   -3.5850    3.1601    0.5541 C   0  0  0  0  0  0  0  0  0  0  0  0
   -1.0820    4.5145    2.8084 C   0  0  0  0  0  0  0  0  0  0  0  0
   -5.4257    3.3322    2.1175 C   0  0  0  0  0  0  0  0  0  0  0  0
   -4.9155    2.9853    0.8640 C   0  0  0  0  0  0  0  0  0  0  0  0
    0.1718    5.0250    3.4285 C   0  0  0  0  0  0  0  0  0  0  0  0
   -1.9711    2.6323   -2.7018 O   0  0  0  0  0  0  0  0  0  0  0  0
   -0.1378   -0.7142    0.9335 H   0  0  0  0  0  0  0  0  0  0  0  0
   -1.1277    0.3150   -0.9677 H   0  0  0  0  0  0  0  0  0  0  0  0
    2.5242    1.2530    2.2100 H   0  0  0  0  0  0  0  0  0  0  0  0
    4.8688    0.8968    1.6055 H   0  0  0  0  0  0  0  0  0  0  0  0
    3.6762   -1.9174   -1.3707 H   0  0  0  0  0  0  0  0  0  0  0  0
    1.3295   -1.5683   -0.7609 H   0  0  0  0  0  0  0  0  0  0  0  0
    5.9726   -1.4005   -1.1693 H   0  0  0  0  0  0  0  0  0  0  0  0
    6.4894   -1.0136    0.4690 H   0  0  0  0  0  0  0  0  0  0  0  0
    6.5974    1.3611   -0.0199 H   0  0  0  0  0  0  0  0  0  0  0  0
    4.8575    0.7017   -2.2416 H   0  0  0  0  0  0  0  0  0  0  0  0
    7.9716    2.4994   -1.4906 H   0  0  0  0  0  0  0  0  0  0  0  0
   -1.2443    1.3467    1.0727 H   0  0  0  0  0  0  0  0  0  0  0  0
    1.3261    2.5445   -0.0210 H   0  0  0  0  0  0  0  0  0  0  0  0
   -0.9918    3.6072   -0.4691 H   0  0  0  0  0  0  0  0  0  0  0  0
   -0.0802    5.9339    0.3854 H   0  0  0  0  0  0  0  0  0  0  0  0
    1.3835    5.0111    0.7298 H   0  0  0  0  0  0  0  0  0  0  0  0
    1.2927    4.1631   -1.6746 H   0  0  0  0  0  0  0  0  0  0  0  0
   -0.0423    5.2922   -1.9422 H   0  0  0  0  0  0  0  0  0  0  0  0
    2.0998    6.2905   -2.6793 H   0  0  0  0  0  0  0  0  0  0  0  0
    1.4457    7.1903   -1.3130 H   0  0  0  0  0  0  0  0  0  0  0  0
    2.7826    6.0659   -1.0656 H   0  0  0  0  0  0  0  0  0  0  0  0
   -2.3223    4.8691    4.4857 H   0  0  0  0  0  0  0  0  0  0  0  0
   -2.9497    5.3616   -1.2300 H   0  0  0  0  0  0  0  0  0  0  0  0
   -5.0020    4.1333    4.0664 H   0  0  0  0  0  0  0  0  0  0  0  0
   -3.2133    2.8815   -0.4203 H   0  0  0  0  0  0  0  0  0  0  0  0
   -6.4754    3.1800    2.3206 H   0  0  0  0  0  0  0  0  0  0  0  0
   -5.5848    2.5718    0.1238 H   0  0  0  0  0  0  0  0  0  0  0  0
    1.0444    4.5658    2.9758 H   0  0  0  0  0  0  0  0  0  0  0  0
    0.2529    6.1051    3.2985 H   0  0  0  0  0  0  0  0  0  0  0  0
    0.1782    4.8107    4.4965 H   0  0  0  0  0  0  0  0  0  0  0  0
    0.8847    2.6136    1.6951 H   0  0  0  0  0  0  0  0  0  0  0  0
   -1.4859    2.7183   -3.5241 H   0  0  0  0  0  0  0  0  0  0  0  0
   -2.5012    5.3421   -2.0775 O   0  0  0  0  0  0  0  0  0  0  0  0
   -1.3759    2.1963   -2.0695 H   0  0  0  0  0  0  0  0  0  0  0  0
   -2.4489    4.4075   -2.3313 H   0  0  0  0  0  0  0  0  0  0  0  0
    5.5094    1.3039   -1.7645 N   0  0  0  0  0  0  0  0  0  0  0  0
    7.8099    0.4743   -1.5587 C   0  0  0  0  0  0  0  0  0  0  0  0
    8.2336   -0.6121   -1.8948 O   0  0  0  0  0  0  0  0  0  0  0  0
    4.2521    3.1043   -2.7359 C   0  0  0  0  0  0  0  0  0  0  0  0
    5.4081    2.6419   -1.8820 C   0  0  0  0  0  0  0  0  0  0  0  0
    6.1993    3.3993   -1.3461 O   0  0  0  0  0  0  0  0  0  0  0  0
    3.3281    2.6375   -2.4022 H   0  0  0  0  0  0  0  0  0  0  0  0
    4.4284    2.8285   -3.7737 H   0  0  0  0  0  0  0  0  0  0  0  0
    4.1606    4.1841   -2.6668 H   0  0  0  0  0  0  0  0  0  0  0  0
    8.4466    1.6397   -1.7484 N   0  0  0  0  0  0  0  0  0  0  0  0
    9.7162    1.7332   -2.4254 C   0  0  0  0  0  0  0  0  0  0  0  0
   10.4513    2.2231   -1.7850 H   0  0  0  0  0  0  0  0  0  0  0  0
    9.6202    2.2995   -3.3538 H   0  0  0  0  0  0  0  0  0  0  0  0
   10.0488    0.7211   -2.6515 H   0  0  0  0  0  0  0  0  0  0  0  0
  1  2  1  0  0  0  0
  2  3  4  0  0  0  0
  3  4  4  0  0  0  0
  4  5  4  0  0  0  0
  5  6  4  0  0  0  0
  2  7  4  0  0  0  0
  6  7  4  0  0  0  0
  5  8  1  0  0  0  0
  8  9  1  0  0  0  0
  1 10  1  0  0  0  0
 10 11  1  0  0  0  0
 11 12  1  0  0  0  0
 12 13  1  0  0  0  0
 13 14  1  0  0  0  0
 14 15  1  0  0  0  0
 10 16  1  0  0  0  0
 17 18  1  0  0  0  0
 18 19  4  0  0  0  0
 12 20  1  0  0  0  0
 19 20  4  0  0  0  0
 18 21  4  0  0  0  0
 19 22  4  0  0  0  0
 17 23  1  0  0  0  0
 20 23  2  0  0  0  0
 21 24  4  0  0  0  0
 22 25  2  0  0  0  0
 24 25  4  0  0  0  0
 23 26  1  0  0  0  0
  1 28  1  0  0  0  0
 16 29  1  0  0  0  0
  3 30  1  0  0  0  0
  4 31  1  0  0  0  0
  6 32  1  0  0  0  0
  7 33  1  0  0  0  0
  8 34  1  0  0  0  0
  8 35  1  0  0  0  0
  9 36  1  0  0  0  0
 10 39  1  0  0  0  0
 11 40  1  0  0  0  0
 12 41  1  0  0  0  0
 13 42  1  0  0  0  0
 13 43  1  0  0  0  0
 14 44  1  0  0  0  0
 14 45  1  0  0  0  0
 15 46  1  0  0  0  0
 15 47  1  0  0  0  0
 15 48  1  0  0  0  0
 17 49  1  0  0  0  0
 21 51  1  0  0  0  0
 22 52  1  0  0  0  0
 24 53  1  0  0  0  0
 25 54  1  0  0  0  0
 26 55  1  0  0  0  0
 26 56  1  0  0  0  0
 26 57  1  0  0  0  0
 11 58  1  0  0  0  0
 27 59  1  0  0  0  0
 50 60  1  0  0  0  0
 27 61  1  0  0  0  0
 60 62  1  0  0  0  0
  9 63  1  0  0  0  0
 37 63  1  0  0  0  0
  9 64  1  0  0  0  0
 64 65  2  0  0  0  0
 63 67  4  0  0  0  0
 66 67  1  0  0  0  0
 67 68  2  0  0  0  0
 66 69  1  0  0  0  0
 66 70  1  0  0  0  0
 66 71  1  0  0  0  0
 38 72  1  0  0  0  0
 64 72  4  0  0  0  0
 72 73  1  0  0  0  0
 73 74  1  0  0  0  0
 73 75  1  0  0  0  0
 73 76  1  0  0  0  0
M  END
