 xtb: 6.7.1pre (5071a88)
          08202604063D

 76 76  0     0  0            999 V2000
    0.4615    0.2162    1.2357 N   0  0  0  0  0  0  0  0  0  0  0  0
    1.8057   -0.0163    0.8589 C   0  0  0  0  0  0  0  0  0  0  0  0
    2.8307    0.7329    1.4305 C   0  0  0  0  0  0  0  0  0  0  0  0
    4.1454    0.5042    1.0804 C   0  0  0  0  0  0  0  0  0  0  0  0
    4.4822   -0.4752    0.1520 C   0  0  0  0  0  0  0  0  0  0  0  0
    3.4623   -1.2466   -0.3873 C   0  0  0  0  0  0  0  0  0  0  0  0
    2.1430   -1.0290   -0.0333 C   0  0  0  0  0  0  0  0  0  0  0  0
    5.9099   -0.6640   -0.2795 C   0  0  0  0  0  0  0  0  0  0  0  0
    6.5051    0.6384   -0.8193 C   0  0  0  0  0  0  0  0  0  0  0  0
   -0.2523    1.3136    0.6223 C   0  0  0  0  0  0  0  0  0  0  0  0
    0.4862    2.6416    0.7310 C   0  0  0  0  0  0  0  0  0  0  0  0
   -0.4223    3.8382    0.4022 C   0  0  0  0  0  0  0  0  0  0  0  0
    0.4169    5.0852    0.0795 C   0  0  0  0  0  0  0  0  0  0  0  0
    0.8432    5.1175   -1.3875 C   0  0  0  0  0  0  0  0  0  0  0  0
    1.8212    6.2517   -1.6666 C   0  0  0  0  0  0  0  0  0  0  0  0
   -0.4914    1.0712   -0.7676 O   0  0  0  0  0  0  0  0  0  0  0  0
   -2.3731    4.6334    3.4499 N   0  0  0  0  0  0  0  0  0  0  0  0
   -3.3635    4.0749    2.6975 C   0  0  0  0  0  0  0  0  0  0  0  0
   -2.7898    3.7000    1.4588 C   0  0  0  0  0  0  0  0  0  0  0  0
   -1.4067    4.0671    1.5103 C   0  0  0  0  0  0  0  0  0  0  0  0
   -4.7038    3.8588    2.9857 C   0  0  0  0  0  0  0  0  0  0  0  0
   -3.5978    3.0925    0.4960 C   0  0  0  0  0  0  0  0  0  0  0  0
   -1.1940    4.6278    2.7425 C   0  0  0  0  0  0  0  0  0  0  0  0
   -5.4762    3.2580    2.0147 C   0  0  0  0  0  0  0  0  0  0  0  0
   -4.9273    2.8809    0.7865 C   0  0  0  0  0  0  0  0  0  0  0  0
    0.0274    5.2099    3.3642 C   0  0  0  0  0  0  0  0  0  0  0  0
   -1.9204    2.5015   -2.7041 O   0  0  0  0  0  0  0  0  0  0  0  0
   -0.0778   -0.6387    1.1267 H   0  0  0  0  0  0  0  0  0  0  0  0
   -1.0393    0.2824   -0.8584 H   0  0  0  0  0  0  0  0  0  0  0  0
    2.5940    1.4833    2.1663 H   0  0  0  0  0  0  0  0  0  0  0  0
    4.9232    1.0946    1.5413 H   0  0  0  0  0  0  0  0  0  0  0  0
    3.7003   -2.0283   -1.0953 H   0  0  0  0  0  0  0  0  0  0  0  0
    1.3655   -1.6470   -0.4627 H   0  0  0  0  0  0  0  0  0  0  0  0
    5.9786   -1.4258   -1.0586 H   0  0  0  0  0  0  0  0  0  0  0  0
    6.5237   -0.9988    0.5594 H   0  0  0  0  0  0  0  0  0  0  0  0
    6.7116    1.3454   -0.0069 H   0  0  0  0  0  0  0  0  0  0  0  0
    4.8670    0.7001   -2.1479 H   0  0  0  0  0  0  0  0  0  0  0  0
    8.0696    2.4002   -1.5470 H   0  0  0  0  0  0  0  0  0  0  0  0
   -1.2190    1.3882    1.1434 H   0  0  0  0  0  0  0  0  0  0  0  0
    1.3355    2.6172    0.0473 H   0  0  0  0  0  0  0  0  0  0  0  0
   -0.9972    3.5963   -0.4932 H   0  0  0  0  0  0  0  0  0  0  0  0
   -0.1748    5.9775    0.2884 H   0  0  0  0  0  0  0  0  0  0  0  0
    1.3031    5.1140    0.7157 H   0  0  0  0  0  0  0  0  0  0  0  0
    1.3104    4.1667   -1.6554 H   0  0  0  0  0  0  0  0  0  0  0  0
   -0.0452    5.2464   -2.0075 H   0  0  0  0  0  0  0  0  0  0  0  0
    2.0904    6.2750   -2.7203 H   0  0  0  0  0  0  0  0  0  0  0  0
    1.3732    7.2085   -1.4092 H   0  0  0  0  0  0  0  0  0  0  0  0
    2.7308    6.1307   -1.0807 H   0  0  0  0  0  0  0  0  0  0  0  0
   -2.4825    5.0053    4.3780 H   0  0  0  0  0  0  0  0  0  0  0  0
   -2.9792    5.2608   -1.3552 H   0  0  0  0  0  0  0  0  0  0  0  0
   -5.1235    4.1525    3.9370 H   0  0  0  0  0  0  0  0  0  0  0  0
   -3.1960    2.7902   -0.4592 H   0  0  0  0  0  0  0  0  0  0  0  0
   -6.5236    3.0747    2.2033 H   0  0  0  0  0  0  0  0  0  0  0  0
   -5.5653    2.4138    0.0506 H   0  0  0  0  0  0  0  0  0  0  0  0
    0.9236    4.7264    2.9883 H   0  0  0  0  0  0  0  0  0  0  0  0
    0.1014    6.2755    3.1432 H   0  0  0  0  0  0  0  0  0  0  0  0
   -0.0066    5.0892    4.4462 H   0  0  0  0  0  0  0  0  0  0  0  0
    0.8531    2.7389    1.7507 H   0  0  0  0  0  0  0  0  0  0  0  0
   -1.4248    2.5584   -3.5226 H   0  0  0  0  0  0  0  0  0  0  0  0
   -2.5090    5.2208   -2.1901 O   0  0  0  0  0  0  0  0  0  0  0  0
   -1.3260    2.1099   -2.0427 H   0  0  0  0  0  0  0  0  0  0  0  0
   -2.4342    4.2792   -2.4103 H   0  0  0  0  0  0  0  0  0  0  0  0
    5.5565    1.2886   -1.7081 N   0  0  0  0  0  0  0  0  0  0  0  0
    7.8319    0.3817   -1.5676 C   0  0  0  0  0  0  0  0  0  0  0  0
    8.2022   -0.7258   -1.8982 O   0  0  0  0  0  0  0  0  0  0  0  0
    4.3292    3.1133   -2.6736 C   0  0  0  0  0  0  0  0  0  0  0  0
    5.4991    2.6266   -1.8527 C   0  0  0  0  0  0  0  0  0  0  0  0
    6.3366    3.3656   -1.3634 O   0  0  0  0  0  0  0  0  0  0  0  0
    3.4024    2.6861   -2.2976 H   0  0  0  0  0  0  0  0  0  0  0  0
    4.4578    2.8119   -3.7113 H   0  0  0  0  0  0  0  0  0  0  0  0
    4.2779    4.1968   -2.6232 H   0  0  0  0  0  0  0  0  0  0  0  0
    8.5036    1.5186   -1.8032 N   0  0  0  0  0  0  0  0  0  0  0  0
    9.7483    1.5521   -2.5302 C   0  0  0  0  0  0  0  0  0  0  0  0
   10.5253    2.0261   -1.9284 H   0  0  0  0  0  0  0  0  0  0  0  0
    9.6368    2.1043   -3.4654 H   0  0  0  0  0  0  0  0  0  0  0  0
   10.0346    0.5243   -2.7485 H   0  0  0  0  0  0  0  0  0  0  0  0
  1  2  1  0  0  0  0
  2  3  4  0  0  0  0
  3  4  4  0  0  0  0
  4  5  4  0  0  0  0
  5  6  4  0  0  0  0
  2  7  4  0  0  0  0
  6  7  4  0  0  0  0
  5  8  1  0  0  0  0
  8  9  1  0  0  0  0
  1 10  1  0  0  0  0
 10 11  1  0  0  0  0
 11 12  1  0  0  0  0
 12 13  1  0  0  0  0
 13 14  1  0  0  0  0
 14 15  1  0  0  0  0
 10 16  1  0  0  0  0
 17 18  1  0  0  0  0
 18 19  4  0  0  0  0
 12 20  1  0  0  0  0
 19 20  4  0  0  0  0
 18 21  4  0  0  0  0
 19 22  4  0  0  0  0
 17 23  1  0  0  0  0
 20 23  2  0  0  0  0
 21 24  4  0  0  0  0
 22 25  2  0  0  0  0
 24 25  4  0  0  0  0
 23 26  1  0  0  0  0
  1 28  1  0  0  0  0
 16 29  1  0  0  0  0
  3 30  1  0  0  0  0
  4 31  1  0  0  0  0
  6 32  1  0  0  0  0
  7 33  1  0  0  0  0
  8 34  1  0  0  0  0
  8 35  1  0  0  0  0
  9 36  1  0  0  0  0
 10 39  1  0  0  0  0
 11 40  1  0  0  0  0
 12 41  1  0  0  0  0
 13 42  1  0  0  0  0
 13 43  1  0  0  0  0
 14 44  1  0  0  0  0
 14 45  1  0  0  0  0
 15 46  1  0  0  0  0
 15 47  1  0  0  0  0
 15 48  1  0  0  0  0
 17 49  1  0  0  0  0
 21 51  1  0  0  0  0
 22 52  1  0  0  0  0
 24 53  1  0  0  0  0
 25 54  1  0  0  0  0
 26 55  1  0  0  0  0
 26 56  1  0  0  0  0
 26 57  1  0  0  0  0
 11 58  1  0  0  0  0
 27 59  1  0  0  0  0
 50 60  1  0  0  0  0
 27 61  1  0  0  0  0
 60 62  1  0  0  0  0
  9 63  1  0  0  0  0
 37 63  1  0  0  0  0
  9 64  1  0  0  0  0
 64 65  2  0  0  0  0
 63 67  4  0  0  0  0
 66 67  1  0  0  0  0
 67 68  2  0  0  0  0
 66 69  1  0  0  0  0
 66 70  1  0  0  0  0
 66 71  1  0  0  0  0
 38 72  1  0  0  0  0
 64 72  4  0  0  0  0
 72 73  1  0  0  0  0
 73 74  1  0  0  0  0
 73 75  1  0  0  0  0
 73 76  1  0  0  0  0
M  END
