 xtb: 6.7.1pre (5071a88)
          08312613163D

 57 54  0     0  0            999 V2000
   -0.1704   -0.6177    0.6328 N   0  0  0  0  0  0  0  0  0  0  0  0
    1.2069   -0.5461    0.6623 C   0  0  0  0  0  0  0  0  0  0  0  0
    1.8397    0.4587    1.3970 C   0  0  0  0  0  0  0  0  0  0  0  0
    3.2042    0.6337    1.3129 C   0  0  0  0  0  0  0  0  0  0  0  0
    3.9827   -0.1828    0.4995 C   0  0  0  0  0  0  0  0  0  0  0  0
    3.3550   -1.2020   -0.2056 C   0  0  0  0  0  0  0  0  0  0  0  0
    1.9887   -1.3897   -0.1258 C   0  0  0  0  0  0  0  0  0  0  0  0
    5.4515    0.0868    0.3375 C   0  0  0  0  0  0  0  0  0  0  0  0
    5.6703    1.3603   -0.4833 C   0  0  0  0  0  0  0  0  0  0  0  0
   -0.9618    0.6467   -1.1759 C   0  0  0  0  0  0  0  0  0  0  0  0
    0.1825    1.5451   -1.1132 C   0  0  0  0  0  0  0  0  0  0  0  0
    0.1470    2.7391   -0.5180 C   0  0  0  0  0  0  0  0  0  0  0  0
    1.2984    3.6729   -0.4391 C   0  0  0  0  0  0  0  0  0  0  0  0
    1.0858    4.8975   -1.3406 C   0  0  0  0  0  0  0  0  0  0  0  0
    2.2888    5.8297   -1.2859 C   0  0  0  0  0  0  0  0  0  0  0  0
   -2.0862    0.8962   -0.7557 O   0  0  0  0  0  0  0  0  0  0  0  0
   -2.8575   -1.6497    0.3971 O   0  0  0  0  0  0  0  0  0  0  0  0
   -0.6531   -0.1398    1.3829 H   0  0  0  0  0  0  0  0  0  0  0  0
   -0.5983   -1.5034    0.3949 H   0  0  0  0  0  0  0  0  0  0  0  0
    1.2427    1.1032    2.0249 H   0  0  0  0  0  0  0  0  0  0  0  0
    3.6761    1.4189    1.8855 H   0  0  0  0  0  0  0  0  0  0  0  0
    3.9441   -1.8654   -0.8244 H   0  0  0  0  0  0  0  0  0  0  0  0
    1.5141   -2.1841   -0.6836 H   0  0  0  0  0  0  0  0  0  0  0  0
    5.9497   -0.7427   -0.1672 H   0  0  0  0  0  0  0  0  0  0  0  0
    5.9329    0.2216    1.3073 H   0  0  0  0  0  0  0  0  0  0  0  0
    5.3081    2.2404    0.0619 H   0  0  0  0  0  0  0  0  0  0  0  0
    4.7050    0.3670   -2.0728 H   0  0  0  0  0  0  0  0  0  0  0  0
    6.6359    3.4360   -1.4205 H   0  0  0  0  0  0  0  0  0  0  0  0
   -0.8008   -0.2471   -1.8010 H   0  0  0  0  0  0  0  0  0  0  0  0
    1.0975    1.1828   -1.5584 H   0  0  0  0  0  0  0  0  0  0  0  0
   -0.7863    3.0803   -0.0879 H   0  0  0  0  0  0  0  0  0  0  0  0
    1.4140    4.0168    0.5918 H   0  0  0  0  0  0  0  0  0  0  0  0
    2.2166    3.1648   -0.7375 H   0  0  0  0  0  0  0  0  0  0  0  0
    0.9315    4.5572   -2.3668 H   0  0  0  0  0  0  0  0  0  0  0  0
    0.1847    5.4297   -1.0272 H   0  0  0  0  0  0  0  0  0  0  0  0
    2.1481    6.6719   -1.9594 H   0  0  0  0  0  0  0  0  0  0  0  0
    2.4273    6.2154   -0.2782 H   0  0  0  0  0  0  0  0  0  0  0  0
    3.1916    5.2981   -1.5772 H   0  0  0  0  0  0  0  0  0  0  0  0
   -2.9546   -1.2142    1.2503 H   0  0  0  0  0  0  0  0  0  0  0  0
   -2.8817   -0.9332   -0.2494 H   0  0  0  0  0  0  0  0  0  0  0  0
   -2.4482    0.8665    1.9535 O   0  0  0  0  0  0  0  0  0  0  0  0
   -3.0993    1.4599    2.3308 H   0  0  0  0  0  0  0  0  0  0  0  0
   -2.4236    1.0525    0.9981 H   0  0  0  0  0  0  0  0  0  0  0  0
    4.9097    1.2884   -1.7198 N   0  0  0  0  0  0  0  0  0  0  0  0
    7.1660    1.5705   -0.8067 C   0  0  0  0  0  0  0  0  0  0  0  0
    8.0013    0.7027   -0.6619 O   0  0  0  0  0  0  0  0  0  0  0  0
    3.6046    2.0851   -3.5747 C   0  0  0  0  0  0  0  0  0  0  0  0
    4.4532    2.3782   -2.3603 C   0  0  0  0  0  0  0  0  0  0  0  0
    4.7199    3.5102   -1.9874 O   0  0  0  0  0  0  0  0  0  0  0  0
    2.8715    1.3117   -3.3593 H   0  0  0  0  0  0  0  0  0  0  0  0
    4.2441    1.7440   -4.3870 H   0  0  0  0  0  0  0  0  0  0  0  0
    3.0981    2.9938   -3.8873 H   0  0  0  0  0  0  0  0  0  0  0  0
    7.4165    2.8062   -1.2672 N   0  0  0  0  0  0  0  0  0  0  0  0
    8.7283    3.2259   -1.6948 C   0  0  0  0  0  0  0  0  0  0  0  0
    9.0369    4.1185   -1.1486 H   0  0  0  0  0  0  0  0  0  0  0  0
    8.7366    3.4433   -2.7648 H   0  0  0  0  0  0  0  0  0  0  0  0
    9.4227    2.4136   -1.4854 H   0  0  0  0  0  0  0  0  0  0  0  0
  1  2  1  0  0  0  0
  2  3  4  0  0  0  0
  3  4  4  0  0  0  0
  4  5  4  0  0  0  0
  5  6  4  0  0  0  0
  2  7  4  0  0  0  0
  6  7  4  0  0  0  0
  5  8  1  0  0  0  0
  8  9  1  0  0  0  0
 10 11  1  0  0  0  0
 11 12  2  0  0  0  0
 12 13  1  0  0  0  0
 13 14  1  0  0  0  0
 14 15  1  0  0  0  0
 10 16  2  0  0  0  0
  1 18  1  0  0  0  0
  1 19  1  0  0  0  0
  3 20  1  0  0  0  0
  4 21  1  0  0  0  0
  6 22  1  0  0  0  0
  7 23  1  0  0  0  0
  8 24  1  0  0  0  0
  8 25  1  0  0  0  0
  9 26  1  0  0  0  0
 10 29  1  0  0  0  0
 11 30  1  0  0  0  0
 12 31  1  0  0  0  0
 13 32  1  0  0  0  0
 13 33  1  0  0  0  0
 14 34  1  0  0  0  0
 14 35  1  0  0  0  0
 15 36  1  0  0  0  0
 15 37  1  0  0  0  0
 15 38  1  0  0  0  0
 17 39  1  0  0  0  0
 17 40  1  0  0  0  0
 41 42  1  0  0  0  0
 41 43  1  0  0  0  0
  9 44  1  0  0  0  0
 27 44  1  0  0  0  0
  9 45  1  0  0  0  0
 45 46  2  0  0  0  0
 44 48  4  0  0  0  0
 47 48  1  0  0  0  0
 48 49  2  0  0  0  0
 47 50  1  0  0  0  0
 47 51  1  0  0  0  0
 47 52  1  0  0  0  0
 28 53  1  0  0  0  0
 45 53  4  0  0  0  0
 53 54  1  0  0  0  0
 54 55  1  0  0  0  0
 54 56  1  0  0  0  0
 54 57  1  0  0  0  0
M  END
