 xtb: 6.7.1pre (5071a88)
          08312613163D

 57 54  0     0  0            999 V2000
   -0.1294   -0.6625    0.3370 N   0  0  0  0  0  0  0  0  0  0  0  0
    1.2439   -0.5409    0.3713 C   0  0  0  0  0  0  0  0  0  0  0  0
    1.8447    0.3839    1.2280 C   0  0  0  0  0  0  0  0  0  0  0  0
    3.2007    0.6228    1.1582 C   0  0  0  0  0  0  0  0  0  0  0  0
    4.0040   -0.0550    0.2478 C   0  0  0  0  0  0  0  0  0  0  0  0
    3.4106   -1.0064   -0.5729 C   0  0  0  0  0  0  0  0  0  0  0  0
    2.0524   -1.2498   -0.5169 C   0  0  0  0  0  0  0  0  0  0  0  0
    5.4578    0.2919    0.1039 C   0  0  0  0  0  0  0  0  0  0  0  0
    5.6204    1.5645   -0.7336 C   0  0  0  0  0  0  0  0  0  0  0  0
   -1.0214    0.9914   -1.1133 C   0  0  0  0  0  0  0  0  0  0  0  0
    0.2117    1.7621   -1.1018 C   0  0  0  0  0  0  0  0  0  0  0  0
    0.4007    2.8087   -0.2941 C   0  0  0  0  0  0  0  0  0  0  0  0
    1.6403    3.6207   -0.2311 C   0  0  0  0  0  0  0  0  0  0  0  0
    1.3967    5.0620   -0.6991 C   0  0  0  0  0  0  0  0  0  0  0  0
    2.6871    5.8698   -0.6602 C   0  0  0  0  0  0  0  0  0  0  0  0
   -2.0336    1.2739   -0.4837 O   0  0  0  0  0  0  0  0  0  0  0  0
   -3.6806   -0.7700    0.3335 O   0  0  0  0  0  0  0  0  0  0  0  0
   -0.6335   -0.3474    1.1683 H   0  0  0  0  0  0  0  0  0  0  0  0
   -0.4916   -1.5209   -0.0507 H   0  0  0  0  0  0  0  0  0  0  0  0
    1.2290    0.9093    1.9420 H   0  0  0  0  0  0  0  0  0  0  0  0
    3.6492    1.3481    1.8217 H   0  0  0  0  0  0  0  0  0  0  0  0
    4.0202   -1.5764   -1.2619 H   0  0  0  0  0  0  0  0  0  0  0  0
    1.6057   -1.9877   -1.1688 H   0  0  0  0  0  0  0  0  0  0  0  0
    6.0091   -0.5143   -0.3834 H   0  0  0  0  0  0  0  0  0  0  0  0
    5.9165    0.4666    1.0777 H   0  0  0  0  0  0  0  0  0  0  0  0
    5.2008    2.4309   -0.2072 H   0  0  0  0  0  0  0  0  0  0  0  0
    4.7099    0.4873   -2.2967 H   0  0  0  0  0  0  0  0  0  0  0  0
    6.4930    3.6606   -1.7175 H   0  0  0  0  0  0  0  0  0  0  0  0
   -1.0544    0.1915   -1.8720 H   0  0  0  0  0  0  0  0  0  0  0  0
    0.9975    1.4265   -1.7625 H   0  0  0  0  0  0  0  0  0  0  0  0
   -0.4122    3.1167    0.3519 H   0  0  0  0  0  0  0  0  0  0  0  0
    1.9930    3.6477    0.8033 H   0  0  0  0  0  0  0  0  0  0  0  0
    2.4187    3.1693   -0.8473 H   0  0  0  0  0  0  0  0  0  0  0  0
    1.0095    5.0418   -1.7199 H   0  0  0  0  0  0  0  0  0  0  0  0
    0.6415    5.5299   -0.0636 H   0  0  0  0  0  0  0  0  0  0  0  0
    2.5163    6.8779   -1.0300 H   0  0  0  0  0  0  0  0  0  0  0  0
    3.0658    5.9366    0.3576 H   0  0  0  0  0  0  0  0  0  0  0  0
    3.4442    5.3959   -1.2803 H   0  0  0  0  0  0  0  0  0  0  0  0
   -3.1744   -0.0586   -0.1030 H   0  0  0  0  0  0  0  0  0  0  0  0
   -4.6062   -0.5703    0.1872 H   0  0  0  0  0  0  0  0  0  0  0  0
   -1.9675    0.3708    2.2419 O   0  0  0  0  0  0  0  0  0  0  0  0
   -2.0548    1.1583    1.6932 H   0  0  0  0  0  0  0  0  0  0  0  0
   -2.6564   -0.2299    1.9183 H   0  0  0  0  0  0  0  0  0  0  0  0
    4.8903    1.4279   -1.9828 N   0  0  0  0  0  0  0  0  0  0  0  0
    7.1102    1.8483   -1.0318 C   0  0  0  0  0  0  0  0  0  0  0  0
    7.9871    1.0313   -0.8436 O   0  0  0  0  0  0  0  0  0  0  0  0
    3.5755    2.0948   -3.8788 C   0  0  0  0  0  0  0  0  0  0  0  0
    4.4044    2.4724   -2.6736 C   0  0  0  0  0  0  0  0  0  0  0  0
    4.6290    3.6292   -2.3521 O   0  0  0  0  0  0  0  0  0  0  0  0
    2.8827    1.2924   -3.6368 H   0  0  0  0  0  0  0  0  0  0  0  0
    4.2341    1.7592   -4.6780 H   0  0  0  0  0  0  0  0  0  0  0  0
    3.0247    2.9652   -4.2237 H   0  0  0  0  0  0  0  0  0  0  0  0
    7.3043    3.0828   -1.5208 N   0  0  0  0  0  0  0  0  0  0  0  0
    8.6000    3.5587   -1.9387 C   0  0  0  0  0  0  0  0  0  0  0  0
    8.8467    4.4865   -1.4206 H   0  0  0  0  0  0  0  0  0  0  0  0
    8.6188    3.7373   -3.0158 H   0  0  0  0  0  0  0  0  0  0  0  0
    9.3337    2.7947   -1.6861 H   0  0  0  0  0  0  0  0  0  0  0  0
  1  2  1  0  0  0  0
  2  3  4  0  0  0  0
  3  4  4  0  0  0  0
  4  5  4  0  0  0  0
  5  6  4  0  0  0  0
  2  7  4  0  0  0  0
  6  7  4  0  0  0  0
  5  8  1  0  0  0  0
  8  9  1  0  0  0  0
 10 11  1  0  0  0  0
 11 12  2  0  0  0  0
 12 13  1  0  0  0  0
 13 14  1  0  0  0  0
 14 15  1  0  0  0  0
 10 16  2  0  0  0  0
  1 18  1  0  0  0  0
  1 19  1  0  0  0  0
  3 20  1  0  0  0  0
  4 21  1  0  0  0  0
  6 22  1  0  0  0  0
  7 23  1  0  0  0  0
  8 24  1  0  0  0  0
  8 25  1  0  0  0  0
  9 26  1  0  0  0  0
 10 29  1  0  0  0  0
 11 30  1  0  0  0  0
 12 31  1  0  0  0  0
 13 32  1  0  0  0  0
 13 33  1  0  0  0  0
 14 34  1  0  0  0  0
 14 35  1  0  0  0  0
 15 36  1  0  0  0  0
 15 37  1  0  0  0  0
 15 38  1  0  0  0  0
 17 39  1  0  0  0  0
 17 40  1  0  0  0  0
 41 42  1  0  0  0  0
 41 43  1  0  0  0  0
  9 44  1  0  0  0  0
 27 44  1  0  0  0  0
  9 45  1  0  0  0  0
 45 46  2  0  0  0  0
 44 48  4  0  0  0  0
 47 48  1  0  0  0  0
 48 49  2  0  0  0  0
 47 50  1  0  0  0  0
 47 51  1  0  0  0  0
 47 52  1  0  0  0  0
 28 53  1  0  0  0  0
 45 53  4  0  0  0  0
 53 54  1  0  0  0  0
 54 55  1  0  0  0  0
 54 56  1  0  0  0  0
 54 57  1  0  0  0  0
M  END
