 xtb: 6.7.1pre (5071a88)
          08312613163D

 57 54  0     0  0            999 V2000
   -0.0569    0.5036    0.4893 N   0  0  0  0  0  0  0  0  0  0  0  0
    1.2871    0.2460    0.2724 C   0  0  0  0  0  0  0  0  0  0  0  0
    2.2816    0.8731    1.0266 C   0  0  0  0  0  0  0  0  0  0  0  0
    3.6034    0.5158    0.8626 C   0  0  0  0  0  0  0  0  0  0  0  0
    3.9748   -0.4601   -0.0560 C   0  0  0  0  0  0  0  0  0  0  0  0
    2.9792   -1.0879   -0.7953 C   0  0  0  0  0  0  0  0  0  0  0  0
    1.6495   -0.7561   -0.6264 C   0  0  0  0  0  0  0  0  0  0  0  0
    5.4243   -0.7798   -0.2809 C   0  0  0  0  0  0  0  0  0  0  0  0
    6.0949    0.3239   -1.1028 C   0  0  0  0  0  0  0  0  0  0  0  0
   -0.5820    1.6648    0.4732 C   0  0  0  0  0  0  0  0  0  0  0  0
    0.0329    2.9046    0.0739 C   0  0  0  0  0  0  0  0  0  0  0  0
   -0.5894    4.0775    0.2138 C   0  0  0  0  0  0  0  0  0  0  0  0
   -0.0141    5.3962   -0.1610 C   0  0  0  0  0  0  0  0  0  0  0  0
   -0.9204    6.1441   -1.1463 C   0  0  0  0  0  0  0  0  0  0  0  0
   -0.3504    7.5108   -1.5025 C   0  0  0  0  0  0  0  0  0  0  0  0
   -0.0879    2.0311    3.3511 O   0  0  0  0  0  0  0  0  0  0  0  0
   -2.7133    1.0957    3.1051 O   0  0  0  0  0  0  0  0  0  0  0  0
   -0.9681   -0.6444    1.4680 H   0  0  0  0  0  0  0  0  0  0  0  0
   -1.0464    1.8991    3.2540 H   0  0  0  0  0  0  0  0  0  0  0  0
    1.9934    1.6214    1.7503 H   0  0  0  0  0  0  0  0  0  0  0  0
    4.3629    1.0046    1.4557 H   0  0  0  0  0  0  0  0  0  0  0  0
    3.2442   -1.8642   -1.5009 H   0  0  0  0  0  0  0  0  0  0  0  0
    0.8817   -1.2492   -1.2043 H   0  0  0  0  0  0  0  0  0  0  0  0
    5.5404   -1.7264   -0.8117 H   0  0  0  0  0  0  0  0  0  0  0  0
    5.9549   -0.8646    0.6684 H   0  0  0  0  0  0  0  0  0  0  0  0
    6.1033    1.2700   -0.5473 H   0  0  0  0  0  0  0  0  0  0  0  0
    4.7569   -0.2001   -2.6450 H   0  0  0  0  0  0  0  0  0  0  0  0
    7.7563    1.8738   -2.0748 H   0  0  0  0  0  0  0  0  0  0  0  0
   -1.6265    1.7152    0.7646 H   0  0  0  0  0  0  0  0  0  0  0  0
    1.0359    2.8557   -0.3300 H   0  0  0  0  0  0  0  0  0  0  0  0
   -1.5856    4.1004    0.6374 H   0  0  0  0  0  0  0  0  0  0  0  0
    0.0887    6.0020    0.7445 H   0  0  0  0  0  0  0  0  0  0  0  0
    0.9787    5.2670   -0.5965 H   0  0  0  0  0  0  0  0  0  0  0  0
   -1.0311    5.5460   -2.0536 H   0  0  0  0  0  0  0  0  0  0  0  0
   -1.9115    6.2654   -0.7041 H   0  0  0  0  0  0  0  0  0  0  0  0
   -1.0020    8.0237   -2.2060 H   0  0  0  0  0  0  0  0  0  0  0  0
   -0.2529    8.1280   -0.6120 H   0  0  0  0  0  0  0  0  0  0  0  0
    0.6325    7.4086   -1.9571 H   0  0  0  0  0  0  0  0  0  0  0  0
   -2.3845    0.2402    2.7589 H   0  0  0  0  0  0  0  0  0  0  0  0
   -3.1117    0.9078    3.9563 H   0  0  0  0  0  0  0  0  0  0  0  0
   -1.6076   -1.1451    2.0239 O   0  0  0  0  0  0  0  0  0  0  0  0
    0.2627    1.1769    3.6126 H   0  0  0  0  0  0  0  0  0  0  0  0
   -2.1251   -1.6803    1.4202 H   0  0  0  0  0  0  0  0  0  0  0  0
    5.3445    0.5537   -2.3257 N   0  0  0  0  0  0  0  0  0  0  0  0
    7.5544   -0.0489   -1.4468 C   0  0  0  0  0  0  0  0  0  0  0  0
    8.0010   -1.1680   -1.3016 O   0  0  0  0  0  0  0  0  0  0  0  0
    4.3654    1.7964   -4.1295 C   0  0  0  0  0  0  0  0  0  0  0  0
    5.3286    1.7370   -2.9664 C   0  0  0  0  0  0  0  0  0  0  0  0
    6.0401    2.6691   -2.6320 O   0  0  0  0  0  0  0  0  0  0  0  0
    3.3527    1.6000   -3.7838 H   0  0  0  0  0  0  0  0  0  0  0  0
    4.6328    1.0488   -4.8732 H   0  0  0  0  0  0  0  0  0  0  0  0
    4.4076    2.7827   -4.5820 H   0  0  0  0  0  0  0  0  0  0  0  0
    8.2471    0.9985   -1.9186 N   0  0  0  0  0  0  0  0  0  0  0  0
    9.6151    0.8902   -2.3615 C   0  0  0  0  0  0  0  0  0  0  0  0
   10.2463    1.5935   -1.8160 H   0  0  0  0  0  0  0  0  0  0  0  0
    9.6939    1.0973   -3.4305 H   0  0  0  0  0  0  0  0  0  0  0  0
    9.9502   -0.1270   -2.1639 H   0  0  0  0  0  0  0  0  0  0  0  0
  1  2  1  0  0  0  0
  2  3  4  0  0  0  0
  3  4  4  0  0  0  0
  4  5  4  0  0  0  0
  5  6  4  0  0  0  0
  2  7  4  0  0  0  0
  6  7  4  0  0  0  0
  5  8  1  0  0  0  0
  8  9  1  0  0  0  0
  1 10  2  0  0  0  0
 10 11  1  0  0  0  0
 11 12  2  0  0  0  0
 12 13  1  0  0  0  0
 13 14  1  0  0  0  0
 14 15  1  0  0  0  0
 16 19  1  0  0  0  0
  3 20  1  0  0  0  0
  4 21  1  0  0  0  0
  6 22  1  0  0  0  0
  7 23  1  0  0  0  0
  8 24  1  0  0  0  0
  8 25  1  0  0  0  0
  9 26  1  0  0  0  0
 10 29  1  0  0  0  0
 11 30  1  0  0  0  0
 12 31  1  0  0  0  0
 13 32  1  0  0  0  0
 13 33  1  0  0  0  0
 14 34  1  0  0  0  0
 14 35  1  0  0  0  0
 15 36  1  0  0  0  0
 15 37  1  0  0  0  0
 15 38  1  0  0  0  0
 17 39  1  0  0  0  0
 17 40  1  0  0  0  0
 18 41  1  0  0  0  0
 16 42  1  0  0  0  0
 41 43  1  0  0  0  0
  9 44  1  0  0  0  0
 27 44  1  0  0  0  0
  9 45  1  0  0  0  0
 45 46  2  0  0  0  0
 44 48  4  0  0  0  0
 47 48  1  0  0  0  0
 48 49  2  0  0  0  0
 47 50  1  0  0  0  0
 47 51  1  0  0  0  0
 47 52  1  0  0  0  0
 28 53  1  0  0  0  0
 45 53  4  0  0  0  0
 53 54  1  0  0  0  0
 54 55  1  0  0  0  0
 54 56  1  0  0  0  0
 54 57  1  0  0  0  0
M  END
