 xtb: 6.7.1pre (5071a88)
          08312613173D

 57 54  0     0  0            999 V2000
   -0.0833    0.4152    0.2964 N   0  0  0  0  0  0  0  0  0  0  0  0
    1.2530    0.0245    0.3199 C   0  0  0  0  0  0  0  0  0  0  0  0
    2.1303    0.4915    1.2980 C   0  0  0  0  0  0  0  0  0  0  0  0
    3.4709    0.1781    1.2294 C   0  0  0  0  0  0  0  0  0  0  0  0
    3.9688   -0.5913    0.1839 C   0  0  0  0  0  0  0  0  0  0  0  0
    3.0708   -1.1400   -0.7233 C   0  0  0  0  0  0  0  0  0  0  0  0
    1.7210   -0.8577   -0.6495 C   0  0  0  0  0  0  0  0  0  0  0  0
    5.4491   -0.6512   -0.0560 C   0  0  0  0  0  0  0  0  0  0  0  0
    5.8735    0.7168   -0.6059 C   0  0  0  0  0  0  0  0  0  0  0  0
   -0.4069    1.6322    0.1005 C   0  0  0  0  0  0  0  0  0  0  0  0
    0.4916    2.7201   -0.1936 C   0  0  0  0  0  0  0  0  0  0  0  0
    0.0922    3.9634   -0.4695 C   0  0  0  0  0  0  0  0  0  0  0  0
    1.0252    5.0524   -0.8667 C   0  0  0  0  0  0  0  0  0  0  0  0
    0.8470    5.4071   -2.3496 C   0  0  0  0  0  0  0  0  0  0  0  0
    1.8257    6.4916   -2.7796 C   0  0  0  0  0  0  0  0  0  0  0  0
    0.5620    1.3569   -2.9860 O   0  0  0  0  0  0  0  0  0  0  0  0
   -1.3555   -0.6305   -3.1044 O   0  0  0  0  0  0  0  0  0  0  0  0
   -1.1752   -0.8891   -0.1538 H   0  0  0  0  0  0  0  0  0  0  0  0
   -0.0591    0.6058   -3.0061 H   0  0  0  0  0  0  0  0  0  0  0  0
    1.7518    1.1244    2.0880 H   0  0  0  0  0  0  0  0  0  0  0  0
    4.1486    0.5747    1.9717 H   0  0  0  0  0  0  0  0  0  0  0  0
    3.4345   -1.7809   -1.5146 H   0  0  0  0  0  0  0  0  0  0  0  0
    1.0355   -1.2527   -1.3815 H   0  0  0  0  0  0  0  0  0  0  0  0
    5.7107   -1.4250   -0.7787 H   0  0  0  0  0  0  0  0  0  0  0  0
    6.0040   -0.8425    0.8629 H   0  0  0  0  0  0  0  0  0  0  0  0
    5.7154    1.4918    0.1555 H   0  0  0  0  0  0  0  0  0  0  0  0
    4.6414    0.3259   -2.2767 H   0  0  0  0  0  0  0  0  0  0  0  0
    7.0894    2.7645   -1.1955 H   0  0  0  0  0  0  0  0  0  0  0  0
   -1.4712    1.8512    0.1058 H   0  0  0  0  0  0  0  0  0  0  0  0
    1.5443    2.4768   -0.2329 H   0  0  0  0  0  0  0  0  0  0  0  0
   -0.9619    4.2140   -0.4497 H   0  0  0  0  0  0  0  0  0  0  0  0
    0.8295    5.9448   -0.2661 H   0  0  0  0  0  0  0  0  0  0  0  0
    2.0569    4.7388   -0.6990 H   0  0  0  0  0  0  0  0  0  0  0  0
    1.0127    4.5076   -2.9459 H   0  0  0  0  0  0  0  0  0  0  0  0
   -0.1778    5.7435   -2.5247 H   0  0  0  0  0  0  0  0  0  0  0  0
    1.7073    6.7146   -3.8374 H   0  0  0  0  0  0  0  0  0  0  0  0
    1.6576    7.4060   -2.2150 H   0  0  0  0  0  0  0  0  0  0  0  0
    2.8499    6.1683   -2.6071 H   0  0  0  0  0  0  0  0  0  0  0  0
   -1.5748   -0.9685   -2.2100 H   0  0  0  0  0  0  0  0  0  0  0  0
   -1.1917   -1.4027   -3.6472 H   0  0  0  0  0  0  0  0  0  0  0  0
   -1.8266   -1.4930   -0.5785 O   0  0  0  0  0  0  0  0  0  0  0  0
    0.0690    2.0953   -3.3480 H   0  0  0  0  0  0  0  0  0  0  0  0
   -2.6729   -1.3119   -0.1675 H   0  0  0  0  0  0  0  0  0  0  0  0
    5.0451    1.0792   -1.7432 N   0  0  0  0  0  0  0  0  0  0  0  0
    7.3585    0.7575   -1.0151 C   0  0  0  0  0  0  0  0  0  0  0  0
    8.0581   -0.2298   -1.1011 O   0  0  0  0  0  0  0  0  0  0  0  0
    3.6561    2.4882   -3.1017 C   0  0  0  0  0  0  0  0  0  0  0  0
    4.6558    2.3469   -1.9849 C   0  0  0  0  0  0  0  0  0  0  0  0
    5.1066    3.2887   -1.3517 O   0  0  0  0  0  0  0  0  0  0  0  0
    4.0324    2.0093   -4.0030 H   0  0  0  0  0  0  0  0  0  0  0  0
    3.4831    3.5419   -3.3001 H   0  0  0  0  0  0  0  0  0  0  0  0
    2.7132    2.0129   -2.8306 H   0  0  0  0  0  0  0  0  0  0  0  0
    7.7659    2.0124   -1.2666 N   0  0  0  0  0  0  0  0  0  0  0  0
    9.1012    2.3293   -1.7071 C   0  0  0  0  0  0  0  0  0  0  0  0
    9.5774    3.0224   -1.0117 H   0  0  0  0  0  0  0  0  0  0  0  0
    9.0845    2.7794   -2.7017 H   0  0  0  0  0  0  0  0  0  0  0  0
    9.6693    1.4010   -1.7393 H   0  0  0  0  0  0  0  0  0  0  0  0
  1  2  1  0  0  0  0
  2  3  4  0  0  0  0
  3  4  4  0  0  0  0
  4  5  4  0  0  0  0
  5  6  4  0  0  0  0
  2  7  4  0  0  0  0
  6  7  4  0  0  0  0
  5  8  1  0  0  0  0
  8  9  1  0  0  0  0
  1 10  2  0  0  0  0
 10 11  1  0  0  0  0
 11 12  2  0  0  0  0
 12 13  1  0  0  0  0
 13 14  1  0  0  0  0
 14 15  1  0  0  0  0
 16 19  1  0  0  0  0
  3 20  1  0  0  0  0
  4 21  1  0  0  0  0
  6 22  1  0  0  0  0
  7 23  1  0  0  0  0
  8 24  1  0  0  0  0
  8 25  1  0  0  0  0
  9 26  1  0  0  0  0
 10 29  1  0  0  0  0
 11 30  1  0  0  0  0
 12 31  1  0  0  0  0
 13 32  1  0  0  0  0
 13 33  1  0  0  0  0
 14 34  1  0  0  0  0
 14 35  1  0  0  0  0
 15 36  1  0  0  0  0
 15 37  1  0  0  0  0
 15 38  1  0  0  0  0
 17 39  1  0  0  0  0
 17 40  1  0  0  0  0
 18 41  1  0  0  0  0
 16 42  1  0  0  0  0
 41 43  1  0  0  0  0
  9 44  1  0  0  0  0
 27 44  1  0  0  0  0
  9 45  1  0  0  0  0
 45 46  2  0  0  0  0
 44 48  4  0  0  0  0
 47 48  1  0  0  0  0
 48 49  2  0  0  0  0
 47 50  1  0  0  0  0
 47 51  1  0  0  0  0
 47 52  1  0  0  0  0
 28 53  1  0  0  0  0
 45 53  4  0  0  0  0
 53 54  1  0  0  0  0
 54 55  1  0  0  0  0
 54 56  1  0  0  0  0
 54 57  1  0  0  0  0
M  END
