 xtb: 6.7.1pre (5071a88)
          08312613173D

 57 54  0     0  0            999 V2000
   -0.2283   -0.3579    0.5522 N   0  0  0  0  0  0  0  0  0  0  0  0
    1.1485   -0.3363    0.6122 C   0  0  0  0  0  0  0  0  0  0  0  0
    1.8034    0.6546    1.3466 C   0  0  0  0  0  0  0  0  0  0  0  0
    3.1740    0.7844    1.2810 C   0  0  0  0  0  0  0  0  0  0  0  0
    3.9376   -0.0664    0.4893 C   0  0  0  0  0  0  0  0  0  0  0  0
    3.2880   -1.0765   -0.2092 C   0  0  0  0  0  0  0  0  0  0  0  0
    1.9152   -1.2182   -0.1489 C   0  0  0  0  0  0  0  0  0  0  0  0
    5.4139    0.1634    0.3348 C   0  0  0  0  0  0  0  0  0  0  0  0
    5.6636    1.3964   -0.5380 C   0  0  0  0  0  0  0  0  0  0  0  0
   -0.8943    0.9203   -1.3423 C   0  0  0  0  0  0  0  0  0  0  0  0
    0.2797    1.7720   -1.2263 C   0  0  0  0  0  0  0  0  0  0  0  0
    0.2713    2.9560   -0.6095 C   0  0  0  0  0  0  0  0  0  0  0  0
    1.4575    3.8371   -0.4714 C   0  0  0  0  0  0  0  0  0  0  0  0
    1.3026    5.1210   -1.2986 C   0  0  0  0  0  0  0  0  0  0  0  0
    2.5601    5.9755   -1.2135 C   0  0  0  0  0  0  0  0  0  0  0  0
   -2.0267    1.2115   -0.9783 O   0  0  0  0  0  0  0  0  0  0  0  0
   -2.9281   -1.3163    0.2044 O   0  0  0  0  0  0  0  0  0  0  0  0
   -0.7128    0.1533    1.2778 H   0  0  0  0  0  0  0  0  0  0  0  0
   -0.6862   -1.2275    0.3113 H   0  0  0  0  0  0  0  0  0  0  0  0
    1.2189    1.3263    1.9576 H   0  0  0  0  0  0  0  0  0  0  0  0
    3.6629    1.5619    1.8501 H   0  0  0  0  0  0  0  0  0  0  0  0
    3.8645   -1.7687   -0.8083 H   0  0  0  0  0  0  0  0  0  0  0  0
    1.4234   -2.0047   -0.7031 H   0  0  0  0  0  0  0  0  0  0  0  0
    5.9005   -0.6965   -0.1288 H   0  0  0  0  0  0  0  0  0  0  0  0
    5.8879    0.3310    1.3029 H   0  0  0  0  0  0  0  0  0  0  0  0
    5.3031    2.3036   -0.0376 H   0  0  0  0  0  0  0  0  0  0  0  0
    4.7157    0.3442   -2.0988 H   0  0  0  0  0  0  0  0  0  0  0  0
    6.6633    3.4161   -1.5554 H   0  0  0  0  0  0  0  0  0  0  0  0
   -0.7332    0.0092   -1.9427 H   0  0  0  0  0  0  0  0  0  0  0  0
    1.1953    1.3819   -1.6459 H   0  0  0  0  0  0  0  0  0  0  0  0
   -0.6606    3.3269   -0.2016 H   0  0  0  0  0  0  0  0  0  0  0  0
    1.5792    4.1136    0.5791 H   0  0  0  0  0  0  0  0  0  0  0  0
    2.3565    3.3104   -0.7944 H   0  0  0  0  0  0  0  0  0  0  0  0
    1.1156    4.8498   -2.3398 H   0  0  0  0  0  0  0  0  0  0  0  0
    0.4389    5.6856   -0.9402 H   0  0  0  0  0  0  0  0  0  0  0  0
    2.4565    6.8672   -1.8271 H   0  0  0  0  0  0  0  0  0  0  0  0
    2.7438    6.2841   -0.1866 H   0  0  0  0  0  0  0  0  0  0  0  0
    3.4208    5.4106   -1.5634 H   0  0  0  0  0  0  0  0  0  0  0  0
   -3.0210   -0.8005    1.0139 H   0  0  0  0  0  0  0  0  0  0  0  0
   -2.9280   -0.6617   -0.5033 H   0  0  0  0  0  0  0  0  0  0  0  0
   -2.6186    1.1915    1.6884 O   0  0  0  0  0  0  0  0  0  0  0  0
   -2.4818    1.3784    0.7427 H   0  0  0  0  0  0  0  0  0  0  0  0
   -3.3629    1.7282    1.9655 H   0  0  0  0  0  0  0  0  0  0  0  0
    4.9216    1.2784   -1.7821 N   0  0  0  0  0  0  0  0  0  0  0  0
    7.1661    1.5767   -0.8468 C   0  0  0  0  0  0  0  0  0  0  0  0
    7.9905    0.7094   -0.6481 O   0  0  0  0  0  0  0  0  0  0  0  0
    3.6470    2.0060   -3.6869 C   0  0  0  0  0  0  0  0  0  0  0  0
    4.4801    2.3430   -2.4732 C   0  0  0  0  0  0  0  0  0  0  0  0
    4.7499    3.4878   -2.1440 O   0  0  0  0  0  0  0  0  0  0  0  0
    2.9694    1.1811   -3.4820 H   0  0  0  0  0  0  0  0  0  0  0  0
    4.3075    1.7218   -4.5045 H   0  0  0  0  0  0  0  0  0  0  0  0
    3.0805    2.8823   -3.9892 H   0  0  0  0  0  0  0  0  0  0  0  0
    7.4353    2.7873   -1.3611 N   0  0  0  0  0  0  0  0  0  0  0  0
    8.7574    3.1749   -1.7874 C   0  0  0  0  0  0  0  0  0  0  0  0
    9.0629    4.0934   -1.2843 H   0  0  0  0  0  0  0  0  0  0  0  0
    8.7861    3.3346   -2.8673 H   0  0  0  0  0  0  0  0  0  0  0  0
    9.4418    2.3704   -1.5228 H   0  0  0  0  0  0  0  0  0  0  0  0
  1  2  1  0  0  0  0
  2  3  4  0  0  0  0
  3  4  4  0  0  0  0
  4  5  4  0  0  0  0
  5  6  4  0  0  0  0
  2  7  4  0  0  0  0
  6  7  4  0  0  0  0
  5  8  1  0  0  0  0
  8  9  1  0  0  0  0
 10 11  1  0  0  0  0
 11 12  2  0  0  0  0
 12 13  1  0  0  0  0
 13 14  1  0  0  0  0
 14 15  1  0  0  0  0
 10 16  2  0  0  0  0
  1 18  1  0  0  0  0
  1 19  1  0  0  0  0
  3 20  1  0  0  0  0
  4 21  1  0  0  0  0
  6 22  1  0  0  0  0
  7 23  1  0  0  0  0
  8 24  1  0  0  0  0
  8 25  1  0  0  0  0
  9 26  1  0  0  0  0
 10 29  1  0  0  0  0
 11 30  1  0  0  0  0
 12 31  1  0  0  0  0
 13 32  1  0  0  0  0
 13 33  1  0  0  0  0
 14 34  1  0  0  0  0
 14 35  1  0  0  0  0
 15 36  1  0  0  0  0
 15 37  1  0  0  0  0
 15 38  1  0  0  0  0
 17 39  1  0  0  0  0
 17 40  1  0  0  0  0
 41 42  1  0  0  0  0
 41 43  1  0  0  0  0
  9 44  1  0  0  0  0
 27 44  1  0  0  0  0
  9 45  1  0  0  0  0
 45 46  2  0  0  0  0
 44 48  4  0  0  0  0
 47 48  1  0  0  0  0
 48 49  2  0  0  0  0
 47 50  1  0  0  0  0
 47 51  1  0  0  0  0
 47 52  1  0  0  0  0
 28 53  1  0  0  0  0
 45 53  4  0  0  0  0
 53 54  1  0  0  0  0
 54 55  1  0  0  0  0
 54 56  1  0  0  0  0
 54 57  1  0  0  0  0
M  END
