 xtb: 6.7.1pre (5071a88)
          08202601063D

 57 54  0     0  0            999 V2000
   -0.2266   -0.3581    0.5557 N   0  0  0  0  0  0  0  0  0  0  0  0
    1.1501   -0.3354    0.6162 C   0  0  0  0  0  0  0  0  0  0  0  0
    1.8043    0.6579    1.3481 C   0  0  0  0  0  0  0  0  0  0  0  0
    3.1748    0.7885    1.2822 C   0  0  0  0  0  0  0  0  0  0  0  0
    3.9390   -0.0638    0.4926 C   0  0  0  0  0  0  0  0  0  0  0  0
    3.2901   -1.0762   -0.2032 C   0  0  0  0  0  0  0  0  0  0  0  0
    1.9175   -1.2188   -0.1425 C   0  0  0  0  0  0  0  0  0  0  0  0
    5.4150    0.1674    0.3369 C   0  0  0  0  0  0  0  0  0  0  0  0
    5.6623    1.3996   -0.5376 C   0  0  0  0  0  0  0  0  0  0  0  0
   -0.8917    0.9147   -1.3448 C   0  0  0  0  0  0  0  0  0  0  0  0
    0.2821    1.7669   -1.2300 C   0  0  0  0  0  0  0  0  0  0  0  0
    0.2738    2.9500   -0.6114 C   0  0  0  0  0  0  0  0  0  0  0  0
    1.4594    3.8319   -0.4734 C   0  0  0  0  0  0  0  0  0  0  0  0
    1.3029    5.1163   -1.2996 C   0  0  0  0  0  0  0  0  0  0  0  0
    2.5589    5.9727   -1.2127 C   0  0  0  0  0  0  0  0  0  0  0  0
   -2.0244    1.2066   -0.9824 O   0  0  0  0  0  0  0  0  0  0  0  0
   -2.9268   -1.3185    0.2132 O   0  0  0  0  0  0  0  0  0  0  0  0
   -0.7118    0.1549    1.2795 H   0  0  0  0  0  0  0  0  0  0  0  0
   -0.6835   -1.2290    0.3177 H   0  0  0  0  0  0  0  0  0  0  0  0
    1.2192    1.3307    1.9574 H   0  0  0  0  0  0  0  0  0  0  0  0
    3.6631    1.5677    1.8494 H   0  0  0  0  0  0  0  0  0  0  0  0
    3.8672   -1.7695   -0.8004 H   0  0  0  0  0  0  0  0  0  0  0  0
    1.4264   -2.0071   -0.6945 H   0  0  0  0  0  0  0  0  0  0  0  0
    5.9023   -0.6925   -0.1256 H   0  0  0  0  0  0  0  0  0  0  0  0
    5.8893    0.3371    1.3045 H   0  0  0  0  0  0  0  0  0  0  0  0
    5.2991    2.3065   -0.0388 H   0  0  0  0  0  0  0  0  0  0  0  0
    4.7181    0.3431   -2.0982 H   0  0  0  0  0  0  0  0  0  0  0  0
    6.6567    3.4207   -1.5564 H   0  0  0  0  0  0  0  0  0  0  0  0
   -0.7298    0.0018   -1.9423 H   0  0  0  0  0  0  0  0  0  0  0  0
    1.1974    1.3777   -1.6511 H   0  0  0  0  0  0  0  0  0  0  0  0
   -0.6578    3.3193   -0.2012 H   0  0  0  0  0  0  0  0  0  0  0  0
    1.5815    4.1079    0.5772 H   0  0  0  0  0  0  0  0  0  0  0  0
    2.3585    3.3062   -0.7975 H   0  0  0  0  0  0  0  0  0  0  0  0
    1.1171    4.8457   -2.3411 H   0  0  0  0  0  0  0  0  0  0  0  0
    0.4379    5.6791   -0.9413 H   0  0  0  0  0  0  0  0  0  0  0  0
    2.4547    6.8645   -1.8259 H   0  0  0  0  0  0  0  0  0  0  0  0
    2.7410    6.2812   -0.1854 H   0  0  0  0  0  0  0  0  0  0  0  0
    3.4209    5.4092   -1.5618 H   0  0  0  0  0  0  0  0  0  0  0  0
   -3.0179   -0.7949    1.0180 H   0  0  0  0  0  0  0  0  0  0  0  0
   -2.9277   -0.6706   -0.5006 H   0  0  0  0  0  0  0  0  0  0  0  0
   -2.6220    1.1954    1.6821 O   0  0  0  0  0  0  0  0  0  0  0  0
   -2.4819    1.3787    0.7361 H   0  0  0  0  0  0  0  0  0  0  0  0
   -3.3708    1.7289    1.9532 H   0  0  0  0  0  0  0  0  0  0  0  0
    4.9212    1.2781   -1.7820 N   0  0  0  0  0  0  0  0  0  0  0  0
    7.1644    1.5834   -0.8461 C   0  0  0  0  0  0  0  0  0  0  0  0
    7.9910    0.7183   -0.6464 O   0  0  0  0  0  0  0  0  0  0  0  0
    3.6483    2.0012   -3.6900 C   0  0  0  0  0  0  0  0  0  0  0  0
    4.4795    2.3409   -2.4757 C   0  0  0  0  0  0  0  0  0  0  0  0
    4.7472    3.4867   -2.1480 O   0  0  0  0  0  0  0  0  0  0  0  0
    2.9709    1.1763   -3.4847 H   0  0  0  0  0  0  0  0  0  0  0  0
    4.3100    1.7160   -4.5063 H   0  0  0  0  0  0  0  0  0  0  0  0
    3.0820    2.8768   -3.9943 H   0  0  0  0  0  0  0  0  0  0  0  0
    7.4306    2.7943   -1.3611 N   0  0  0  0  0  0  0  0  0  0  0  0
    8.7514    3.1848   -1.7889 C   0  0  0  0  0  0  0  0  0  0  0  0
    9.0544    4.1053   -1.2880 H   0  0  0  0  0  0  0  0  0  0  0  0
    8.7790    3.3423   -2.8691 H   0  0  0  0  0  0  0  0  0  0  0  0
    9.4383    2.3828   -1.5229 H   0  0  0  0  0  0  0  0  0  0  0  0
  1  2  1  0  0  0  0
  2  3  4  0  0  0  0
  3  4  4  0  0  0  0
  4  5  4  0  0  0  0
  5  6  4  0  0  0  0
  2  7  4  0  0  0  0
  6  7  4  0  0  0  0
  5  8  1  0  0  0  0
  8  9  1  0  0  0  0
 10 11  1  0  0  0  0
 11 12  2  0  0  0  0
 12 13  1  0  0  0  0
 13 14  1  0  0  0  0
 14 15  1  0  0  0  0
 10 16  2  0  0  0  0
  1 18  1  0  0  0  0
  1 19  1  0  0  0  0
  3 20  1  0  0  0  0
  4 21  1  0  0  0  0
  6 22  1  0  0  0  0
  7 23  1  0  0  0  0
  8 24  1  0  0  0  0
  8 25  1  0  0  0  0
  9 26  1  0  0  0  0
 10 29  1  0  0  0  0
 11 30  1  0  0  0  0
 12 31  1  0  0  0  0
 13 32  1  0  0  0  0
 13 33  1  0  0  0  0
 14 34  1  0  0  0  0
 14 35  1  0  0  0  0
 15 36  1  0  0  0  0
 15 37  1  0  0  0  0
 15 38  1  0  0  0  0
 17 39  1  0  0  0  0
 17 40  1  0  0  0  0
 41 42  1  0  0  0  0
 41 43  1  0  0  0  0
  9 44  1  0  0  0  0
 27 44  1  0  0  0  0
  9 45  1  0  0  0  0
 45 46  2  0  0  0  0
 44 48  4  0  0  0  0
 47 48  1  0  0  0  0
 48 49  2  0  0  0  0
 47 50  1  0  0  0  0
 47 51  1  0  0  0  0
 47 52  1  0  0  0  0
 28 53  1  0  0  0  0
 45 53  4  0  0  0  0
 53 54  1  0  0  0  0
 54 55  1  0  0  0  0
 54 56  1  0  0  0  0
 54 57  1  0  0  0  0
M  END
