 xtb: 6.7.1pre (5071a88)
          08202604043D

 57 54  0     0  0            999 V2000
   -0.2147   -0.3394    0.6447 N   0  0  0  0  0  0  0  0  0  0  0  0
    1.1622   -0.2985    0.6955 C   0  0  0  0  0  0  0  0  0  0  0  0
    1.8074    0.7250    1.3927 C   0  0  0  0  0  0  0  0  0  0  0  0
    3.1764    0.8669    1.3198 C   0  0  0  0  0  0  0  0  0  0  0  0
    3.9477   -0.0039    0.5578 C   0  0  0  0  0  0  0  0  0  0  0  0
    3.3076   -1.0435   -0.1053 C   0  0  0  0  0  0  0  0  0  0  0  0
    1.9364   -1.1969   -0.0381 C   0  0  0  0  0  0  0  0  0  0  0  0
    5.4220    0.2329    0.3959 C   0  0  0  0  0  0  0  0  0  0  0  0
    5.6629    1.4298   -0.5281 C   0  0  0  0  0  0  0  0  0  0  0  0
   -0.9336    0.8913   -1.2418 C   0  0  0  0  0  0  0  0  0  0  0  0
    0.2459    1.7430   -1.2001 C   0  0  0  0  0  0  0  0  0  0  0  0
    0.2553    2.9579   -0.6473 C   0  0  0  0  0  0  0  0  0  0  0  0
    1.4428    3.8469   -0.5942 C   0  0  0  0  0  0  0  0  0  0  0  0
    1.2678    5.0675   -1.5090 C   0  0  0  0  0  0  0  0  0  0  0  0
    2.5169    5.9384   -1.4980 C   0  0  0  0  0  0  0  0  0  0  0  0
   -2.0509    1.2011   -0.8451 O   0  0  0  0  0  0  0  0  0  0  0  0
   -2.9251   -1.3084    0.3476 O   0  0  0  0  0  0  0  0  0  0  0  0
   -0.7012    0.1778    1.3654 H   0  0  0  0  0  0  0  0  0  0  0  0
   -0.6598   -1.2214    0.4264 H   0  0  0  0  0  0  0  0  0  0  0  0
    1.2165    1.4110    1.9813 H   0  0  0  0  0  0  0  0  0  0  0  0
    3.6581    1.6689    1.8602 H   0  0  0  0  0  0  0  0  0  0  0  0
    3.8904   -1.7505   -0.6806 H   0  0  0  0  0  0  0  0  0  0  0  0
    1.4519   -2.0068   -0.5642 H   0  0  0  0  0  0  0  0  0  0  0  0
    5.9175   -0.6414   -0.0297 H   0  0  0  0  0  0  0  0  0  0  0  0
    5.8922    0.4459    1.3569 H   0  0  0  0  0  0  0  0  0  0  0  0
    5.2911    2.3538   -0.0684 H   0  0  0  0  0  0  0  0  0  0  0  0
    4.7249    0.3015   -2.0412 H   0  0  0  0  0  0  0  0  0  0  0  0
    6.6495    3.4124   -1.6282 H   0  0  0  0  0  0  0  0  0  0  0  0
   -0.8004   -0.0362   -1.8233 H   0  0  0  0  0  0  0  0  0  0  0  0
    1.1483    1.3295   -1.6259 H   0  0  0  0  0  0  0  0  0  0  0  0
   -0.6655    3.3509   -0.2344 H   0  0  0  0  0  0  0  0  0  0  0  0
    1.5843    4.1986    0.4310 H   0  0  0  0  0  0  0  0  0  0  0  0
    2.3365    3.2995   -0.8967 H   0  0  0  0  0  0  0  0  0  0  0  0
    1.0731    4.7208   -2.5261 H   0  0  0  0  0  0  0  0  0  0  0  0
    0.4018    5.6481   -1.1827 H   0  0  0  0  0  0  0  0  0  0  0  0
    2.3993    6.7803   -2.1761 H   0  0  0  0  0  0  0  0  0  0  0  0
    2.7042    6.3256   -0.4987 H   0  0  0  0  0  0  0  0  0  0  0  0
    3.3816    5.3580   -1.8105 H   0  0  0  0  0  0  0  0  0  0  0  0
   -3.0206   -0.8362    1.1816 H   0  0  0  0  0  0  0  0  0  0  0  0
   -2.9206   -0.6178   -0.3262 H   0  0  0  0  0  0  0  0  0  0  0  0
   -2.5073    1.2183    1.8520 O   0  0  0  0  0  0  0  0  0  0  0  0
   -2.4430    1.3913    0.8962 H   0  0  0  0  0  0  0  0  0  0  0  0
   -3.1619    1.8276    2.1964 H   0  0  0  0  0  0  0  0  0  0  0  0
    4.9283    1.2503   -1.7692 N   0  0  0  0  0  0  0  0  0  0  0  0
    7.1655    1.6110   -0.8367 C   0  0  0  0  0  0  0  0  0  0  0  0
    7.9967    0.7610   -0.5955 O   0  0  0  0  0  0  0  0  0  0  0  0
    3.6581    1.8778   -3.7108 C   0  0  0  0  0  0  0  0  0  0  0  0
    4.4860    2.2785   -2.5128 C   0  0  0  0  0  0  0  0  0  0  0  0
    4.7491    3.4392   -2.2386 O   0  0  0  0  0  0  0  0  0  0  0  0
    2.9323    1.1135   -3.4445 H   0  0  0  0  0  0  0  0  0  0  0  0
    4.3139    1.4824   -4.4845 H   0  0  0  0  0  0  0  0  0  0  0  0
    3.1449    2.7515   -4.1021 H   0  0  0  0  0  0  0  0  0  0  0  0
    7.4265    2.8003   -1.4018 N   0  0  0  0  0  0  0  0  0  0  0  0
    8.7473    3.1818   -1.8374 C   0  0  0  0  0  0  0  0  0  0  0  0
    9.0476    4.1167   -1.3618 H   0  0  0  0  0  0  0  0  0  0  0  0
    8.7763    3.3091   -2.9214 H   0  0  0  0  0  0  0  0  0  0  0  0
    9.4355    2.3893   -1.5475 H   0  0  0  0  0  0  0  0  0  0  0  0
  1  2  1  0  0  0  0
  2  3  4  0  0  0  0
  3  4  4  0  0  0  0
  4  5  4  0  0  0  0
  5  6  4  0  0  0  0
  2  7  4  0  0  0  0
  6  7  4  0  0  0  0
  5  8  1  0  0  0  0
  8  9  1  0  0  0  0
 10 11  1  0  0  0  0
 11 12  2  0  0  0  0
 12 13  1  0  0  0  0
 13 14  1  0  0  0  0
 14 15  1  0  0  0  0
 10 16  2  0  0  0  0
  1 18  1  0  0  0  0
  1 19  1  0  0  0  0
  3 20  1  0  0  0  0
  4 21  1  0  0  0  0
  6 22  1  0  0  0  0
  7 23  1  0  0  0  0
  8 24  1  0  0  0  0
  8 25  1  0  0  0  0
  9 26  1  0  0  0  0
 10 29  1  0  0  0  0
 11 30  1  0  0  0  0
 12 31  1  0  0  0  0
 13 32  1  0  0  0  0
 13 33  1  0  0  0  0
 14 34  1  0  0  0  0
 14 35  1  0  0  0  0
 15 36  1  0  0  0  0
 15 37  1  0  0  0  0
 15 38  1  0  0  0  0
 17 39  1  0  0  0  0
 17 40  1  0  0  0  0
 41 42  1  0  0  0  0
 41 43  1  0  0  0  0
  9 44  1  0  0  0  0
 27 44  1  0  0  0  0
  9 45  1  0  0  0  0
 45 46  2  0  0  0  0
 44 48  4  0  0  0  0
 47 48  1  0  0  0  0
 48 49  2  0  0  0  0
 47 50  1  0  0  0  0
 47 51  1  0  0  0  0
 47 52  1  0  0  0  0
 28 53  1  0  0  0  0
 45 53  4  0  0  0  0
 53 54  1  0  0  0  0
 54 55  1  0  0  0  0
 54 56  1  0  0  0  0
 54 57  1  0  0  0  0
M  END
