 xtb: 6.7.1pre (5071a88)
          08312613153D

 57 54  0     0  0            999 V2000
   -0.2086   -0.9798   -0.2159 N   0  0  0  0  0  0  0  0  0  0  0  0
    1.1595   -0.8199   -0.1107 C   0  0  0  0  0  0  0  0  0  0  0  0
    1.6922   -0.0502    0.9286 C   0  0  0  0  0  0  0  0  0  0  0  0
    3.0447    0.2379    0.9527 C   0  0  0  0  0  0  0  0  0  0  0  0
    3.8954   -0.2386   -0.0450 C   0  0  0  0  0  0  0  0  0  0  0  0
    3.3654   -1.0387   -1.0544 C   0  0  0  0  0  0  0  0  0  0  0  0
    2.0111   -1.3303   -1.0935 C   0  0  0  0  0  0  0  0  0  0  0  0
    5.3315    0.2152   -0.0987 C   0  0  0  0  0  0  0  0  0  0  0  0
    5.3951    1.5806   -0.7941 C   0  0  0  0  0  0  0  0  0  0  0  0
   -1.0106    1.2444   -1.3330 C   0  0  0  0  0  0  0  0  0  0  0  0
    0.2658    1.9135   -1.1198 C   0  0  0  0  0  0  0  0  0  0  0  0
    0.4313    2.8020   -0.1278 C   0  0  0  0  0  0  0  0  0  0  0  0
    1.7091    3.4990    0.1812 C   0  0  0  0  0  0  0  0  0  0  0  0
    1.7249    4.9074   -0.4432 C   0  0  0  0  0  0  0  0  0  0  0  0
    2.9575    5.6868    0.0049 C   0  0  0  0  0  0  0  0  0  0  0  0
   -2.0051    1.4268   -0.6462 O   0  0  0  0  0  0  0  0  0  0  0  0
   -3.1154   -0.8490    0.5232 O   0  0  0  0  0  0  0  0  0  0  0  0
   -0.7246   -0.8042    0.6345 H   0  0  0  0  0  0  0  0  0  0  0  0
   -0.5270   -1.7935   -0.7173 H   0  0  0  0  0  0  0  0  0  0  0  0
    1.0312    0.3344    1.6966 H   0  0  0  0  0  0  0  0  0  0  0  0
    3.4467    0.8509    1.7529 H   0  0  0  0  0  0  0  0  0  0  0  0
    4.0171   -1.4323   -1.8288 H   0  0  0  0  0  0  0  0  0  0  0  0
    1.6059   -1.9372   -1.8960 H   0  0  0  0  0  0  0  0  0  0  0  0
    5.9549   -0.4961   -0.6475 H   0  0  0  0  0  0  0  0  0  0  0  0
    5.7494    0.3263    0.9050 H   0  0  0  0  0  0  0  0  0  0  0  0
    4.7820    2.3139   -0.2542 H   0  0  0  0  0  0  0  0  0  0  0  0
    4.9858    0.5952   -2.6267 H   0  0  0  0  0  0  0  0  0  0  0  0
    6.0474    3.8861   -1.5036 H   0  0  0  0  0  0  0  0  0  0  0  0
   -1.0389    0.5623   -2.2034 H   0  0  0  0  0  0  0  0  0  0  0  0
    1.0872    1.6362   -1.7719 H   0  0  0  0  0  0  0  0  0  0  0  0
   -0.4231    3.0601    0.4936 H   0  0  0  0  0  0  0  0  0  0  0  0
    1.8154    3.5881    1.2667 H   0  0  0  0  0  0  0  0  0  0  0  0
    2.5598    2.9320   -0.2065 H   0  0  0  0  0  0  0  0  0  0  0  0
    1.7291    4.8074   -1.5324 H   0  0  0  0  0  0  0  0  0  0  0  0
    0.8173    5.4460   -0.1525 H   0  0  0  0  0  0  0  0  0  0  0  0
    2.9596    6.6744   -0.4574 H   0  0  0  0  0  0  0  0  0  0  0  0
    2.9640    5.8089    1.0891 H   0  0  0  0  0  0  0  0  0  0  0  0
    3.8651    5.1618   -0.2928 H   0  0  0  0  0  0  0  0  0  0  0  0
   -2.8710   -0.0848   -0.0238 H   0  0  0  0  0  0  0  0  0  0  0  0
   -4.0598   -0.7776    0.6691 H   0  0  0  0  0  0  0  0  0  0  0  0
   -1.3923    0.7475    2.1127 O   0  0  0  0  0  0  0  0  0  0  0  0
   -1.6338    1.2820    1.3456 H   0  0  0  0  0  0  0  0  0  0  0  0
   -2.0528    0.0446    2.1262 H   0  0  0  0  0  0  0  0  0  0  0  0
    4.8509    1.4687   -2.1432 N   0  0  0  0  0  0  0  0  0  0  0  0
    6.8400    2.1063   -0.8845 C   0  0  0  0  0  0  0  0  0  0  0  0
    7.8026    1.4114   -0.6291 O   0  0  0  0  0  0  0  0  0  0  0  0
    3.6112    2.1544   -4.0818 C   0  0  0  0  0  0  0  0  0  0  0  0
    4.1863    2.4841   -2.7218 C   0  0  0  0  0  0  0  0  0  0  0  0
    4.0548    3.5778   -2.1935 O   0  0  0  0  0  0  0  0  0  0  0  0
    2.8704    1.3615   -3.9825 H   0  0  0  0  0  0  0  0  0  0  0  0
    4.3984    1.8134   -4.7528 H   0  0  0  0  0  0  0  0  0  0  0  0
    3.1379    3.0423   -4.4944 H   0  0  0  0  0  0  0  0  0  0  0  0
    6.8976    3.3929   -1.2661 N   0  0  0  0  0  0  0  0  0  0  0  0
    8.1674    4.0656   -1.4744 C   0  0  0  0  0  0  0  0  0  0  0  0
    8.2141    4.9691   -0.8624 H   0  0  0  0  0  0  0  0  0  0  0  0
    8.2805    4.3370   -2.5271 H   0  0  0  0  0  0  0  0  0  0  0  0
    8.9666    3.3836   -1.1839 H   0  0  0  0  0  0  0  0  0  0  0  0
  1  2  1  0  0  0  0
  2  3  4  0  0  0  0
  3  4  4  0  0  0  0
  4  5  4  0  0  0  0
  5  6  4  0  0  0  0
  2  7  4  0  0  0  0
  6  7  4  0  0  0  0
  5  8  1  0  0  0  0
  8  9  1  0  0  0  0
 10 11  1  0  0  0  0
 11 12  2  0  0  0  0
 12 13  1  0  0  0  0
 13 14  1  0  0  0  0
 14 15  1  0  0  0  0
 10 16  2  0  0  0  0
  1 18  1  0  0  0  0
  1 19  1  0  0  0  0
  3 20  1  0  0  0  0
  4 21  1  0  0  0  0
  6 22  1  0  0  0  0
  7 23  1  0  0  0  0
  8 24  1  0  0  0  0
  8 25  1  0  0  0  0
  9 26  1  0  0  0  0
 10 29  1  0  0  0  0
 11 30  1  0  0  0  0
 12 31  1  0  0  0  0
 13 32  1  0  0  0  0
 13 33  1  0  0  0  0
 14 34  1  0  0  0  0
 14 35  1  0  0  0  0
 15 36  1  0  0  0  0
 15 37  1  0  0  0  0
 15 38  1  0  0  0  0
 17 39  1  0  0  0  0
 17 40  1  0  0  0  0
 41 42  1  0  0  0  0
 41 43  1  0  0  0  0
  9 44  1  0  0  0  0
 27 44  1  0  0  0  0
  9 45  1  0  0  0  0
 45 46  2  0  0  0  0
 44 48  4  0  0  0  0
 47 48  1  0  0  0  0
 48 49  2  0  0  0  0
 47 50  1  0  0  0  0
 47 51  1  0  0  0  0
 47 52  1  0  0  0  0
 28 53  1  0  0  0  0
 45 53  4  0  0  0  0
 53 54  1  0  0  0  0
 54 55  1  0  0  0  0
 54 56  1  0  0  0  0
 54 57  1  0  0  0  0
M  END
