 xtb: 6.7.1pre (5071a88)
          08312613173D

 76 76  0     0  0            999 V2000
   -0.2114    0.5267   -0.1572 N   0  0  0  0  0  0  0  0  0  0  0  0
    1.1444    0.1976   -0.1437 C   0  0  0  0  0  0  0  0  0  0  0  0
    1.9140    0.3272    1.0113 C   0  0  0  0  0  0  0  0  0  0  0  0
    3.2573    0.0184    0.9884 C   0  0  0  0  0  0  0  0  0  0  0  0
    3.8632   -0.4286   -0.1785 C   0  0  0  0  0  0  0  0  0  0  0  0
    3.0715   -0.6366   -1.3010 C   0  0  0  0  0  0  0  0  0  0  0  0
    1.7223   -0.3469   -1.2876 C   0  0  0  0  0  0  0  0  0  0  0  0
    5.3562   -0.5167   -0.2696 C   0  0  0  0  0  0  0  0  0  0  0  0
    5.8783    0.9011   -0.5671 C   0  0  0  0  0  0  0  0  0  0  0  0
   -0.6482    1.6745    0.1687 C   0  0  0  0  0  0  0  0  0  0  0  0
    0.1155    2.8835    0.5308 C   0  0  0  0  0  0  0  0  0  0  0  0
   -0.5656    4.2134    0.1202 C   0  0  0  0  0  0  0  0  0  0  0  0
    0.3195    5.1687   -0.6640 C   0  0  0  0  0  0  0  0  0  0  0  0
    0.4383    4.7666   -2.1319 C   0  0  0  0  0  0  0  0  0  0  0  0
    1.3405    5.7267   -2.8970 C   0  0  0  0  0  0  0  0  0  0  0  0
   -1.4514   -0.0529   -2.6083 O   0  0  0  0  0  0  0  0  0  0  0  0
   -0.9041    2.5756    2.8778 N   0  0  0  0  0  0  0  0  0  0  0  0
   -2.1748    3.0913    2.7841 C   0  0  0  0  0  0  0  0  0  0  0  0
   -2.1721    4.3189    2.1045 C   0  0  0  0  0  0  0  0  0  0  0  0
   -0.7856    4.5829    1.6014 C   0  0  0  0  0  0  0  0  0  0  0  0
   -3.3498    2.5784    3.3070 C   0  0  0  0  0  0  0  0  0  0  0  0
   -3.3305    5.0425    1.9560 C   0  0  0  0  0  0  0  0  0  0  0  0
    0.0011    3.3264    2.0442 C   0  0  0  0  0  0  0  0  0  0  0  0
   -4.5146    3.3156    3.1477 C   0  0  0  0  0  0  0  0  0  0  0  0
   -4.5120    4.5316    2.4864 C   0  0  0  0  0  0  0  0  0  0  0  0
    1.3384    3.5480    2.7248 C   0  0  0  0  0  0  0  0  0  0  0  0
   -0.8796   -0.4608    2.6644 O   0  0  0  0  0  0  0  0  0  0  0  0
   -1.0698   -0.0281   -1.7103 H   0  0  0  0  0  0  0  0  0  0  0  0
   -0.1783    1.0280   -3.3936 H   0  0  0  0  0  0  0  0  0  0  0  0
    1.4461    0.6721    1.9202 H   0  0  0  0  0  0  0  0  0  0  0  0
    3.8512    0.1560    1.8805 H   0  0  0  0  0  0  0  0  0  0  0  0
    3.5181   -1.0195   -2.2079 H   0  0  0  0  0  0  0  0  0  0  0  0
    1.1293   -0.4853   -2.1766 H   0  0  0  0  0  0  0  0  0  0  0  0
    5.6714   -1.1894   -1.0689 H   0  0  0  0  0  0  0  0  0  0  0  0
    5.8027   -0.8608    0.6630 H   0  0  0  0  0  0  0  0  0  0  0  0
    5.5799    1.5747    0.2467 H   0  0  0  0  0  0  0  0  0  0  0  0
    5.3931    0.8942   -2.6057 H   0  0  0  0  0  0  0  0  0  0  0  0
    7.2225    2.9139   -1.0966 H   0  0  0  0  0  0  0  0  0  0  0  0
   -1.7321    1.7781    0.1635 H   0  0  0  0  0  0  0  0  0  0  0  0
    1.1540    2.7922    0.2059 H   0  0  0  0  0  0  0  0  0  0  0  0
   -1.5068    4.0649   -0.4175 H   0  0  0  0  0  0  0  0  0  0  0  0
   -0.1058    6.1744   -0.5981 H   0  0  0  0  0  0  0  0  0  0  0  0
    1.3149    5.1960   -0.2164 H   0  0  0  0  0  0  0  0  0  0  0  0
    0.8375    3.7539   -2.2005 H   0  0  0  0  0  0  0  0  0  0  0  0
   -0.5556    4.7640   -2.5867 H   0  0  0  0  0  0  0  0  0  0  0  0
    1.4390    5.4177   -3.9353 H   0  0  0  0  0  0  0  0  0  0  0  0
    0.9316    6.7352   -2.8767 H   0  0  0  0  0  0  0  0  0  0  0  0
    2.3301    5.7536   -2.4459 H   0  0  0  0  0  0  0  0  0  0  0  0
   -0.7698    1.5871    3.0297 H   0  0  0  0  0  0  0  0  0  0  0  0
   -0.3878    5.5518    1.9028 H   0  0  0  0  0  0  0  0  0  0  0  0
   -3.3537    1.6291    3.8203 H   0  0  0  0  0  0  0  0  0  0  0  0
   -3.3267    5.9862    1.4298 H   0  0  0  0  0  0  0  0  0  0  0  0
   -5.4414    2.9300    3.5480 H   0  0  0  0  0  0  0  0  0  0  0  0
   -5.4319    5.0860    2.3760 H   0  0  0  0  0  0  0  0  0  0  0  0
    2.0022    4.1208    2.0833 H   0  0  0  0  0  0  0  0  0  0  0  0
    1.1819    4.0907    3.6548 H   0  0  0  0  0  0  0  0  0  0  0  0
    1.8172    2.5999    2.9558 H   0  0  0  0  0  0  0  0  0  0  0  0
   -0.8042   -0.5145    1.7054 H   0  0  0  0  0  0  0  0  0  0  0  0
   -0.8463   -1.3573    3.0028 H   0  0  0  0  0  0  0  0  0  0  0  0
    0.4998    1.6491   -3.7070 O   0  0  0  0  0  0  0  0  0  0  0  0
   -2.3852    0.1430   -2.5168 H   0  0  0  0  0  0  0  0  0  0  0  0
    0.1331    2.0770   -4.4821 H   0  0  0  0  0  0  0  0  0  0  0  0
    5.2734    1.4418   -1.7675 N   0  0  0  0  0  0  0  0  0  0  0  0
    7.4062    0.9254   -0.7029 C   0  0  0  0  0  0  0  0  0  0  0  0
    8.1071   -0.0527   -0.5606 O   0  0  0  0  0  0  0  0  0  0  0  0
    3.6089    2.6091   -3.0590 C   0  0  0  0  0  0  0  0  0  0  0  0
    4.2656    2.3557   -1.7282 C   0  0  0  0  0  0  0  0  0  0  0  0
    3.9671    2.9426   -0.7076 O   0  0  0  0  0  0  0  0  0  0  0  0
    4.2247    2.2703   -3.8872 H   0  0  0  0  0  0  0  0  0  0  0  0
    3.4030    3.6705   -3.1629 H   0  0  0  0  0  0  0  0  0  0  0  0
    2.6524    2.0862   -3.0892 H   0  0  0  0  0  0  0  0  0  0  0  0
    7.8760    2.1514   -1.0081 N   0  0  0  0  0  0  0  0  0  0  0  0
    9.2776    2.4294   -1.1994 C   0  0  0  0  0  0  0  0  0  0  0  0
    9.6300    3.1619   -0.4712 H   0  0  0  0  0  0  0  0  0  0  0  0
    9.4630    2.8084   -2.2063 H   0  0  0  0  0  0  0  0  0  0  0  0
    9.8164    1.4936   -1.0597 H   0  0  0  0  0  0  0  0  0  0  0  0
  1  2  1  0  0  0  0
  2  3  4  0  0  0  0
  3  4  4  0  0  0  0
  4  5  4  0  0  0  0
  5  6  4  0  0  0  0
  2  7  4  0  0  0  0
  6  7  4  0  0  0  0
  5  8  1  0  0  0  0
  8  9  1  0  0  0  0
  1 10  2  0  0  0  0
 10 11  1  0  0  0  0
 11 12  1  0  0  0  0
 12 13  1  0  0  0  0
 13 14  1  0  0  0  0
 14 15  1  0  0  0  0
 17 18  1  0  0  0  0
 18 19  4  0  0  0  0
 12 20  1  0  0  0  0
 19 20  1  0  0  0  0
 18 21  4  0  0  0  0
 19 22  4  0  0  0  0
 11 23  1  0  0  0  0
 17 23  1  0  0  0  0
 20 23  1  0  0  0  0
 21 24  4  0  0  0  0
 22 25  4  0  0  0  0
 24 25  4  0  0  0  0
 23 26  1  0  0  0  0
 16 28  1  0  0  0  0
  3 30  1  0  0  0  0
  4 31  1  0  0  0  0
  6 32  1  0  0  0  0
  7 33  1  0  0  0  0
  8 34  1  0  0  0  0
  8 35  1  0  0  0  0
  9 36  1  0  0  0  0
 10 39  1  0  0  0  0
 11 40  1  0  0  0  0
 12 41  1  0  0  0  0
 13 42  1  0  0  0  0
 13 43  1  0  0  0  0
 14 44  1  0  0  0  0
 14 45  1  0  0  0  0
 15 46  1  0  0  0  0
 15 47  1  0  0  0  0
 15 48  1  0  0  0  0
 17 49  1  0  0  0  0
 20 50  1  0  0  0  0
 21 51  1  0  0  0  0
 22 52  1  0  0  0  0
 24 53  1  0  0  0  0
 25 54  1  0  0  0  0
 26 55  1  0  0  0  0
 26 56  1  0  0  0  0
 26 57  1  0  0  0  0
 27 58  1  0  0  0  0
 27 59  1  0  0  0  0
 29 60  1  0  0  0  0
 16 61  1  0  0  0  0
 60 62  1  0  0  0  0
  9 63  1  0  0  0  0
 37 63  1  0  0  0  0
  9 64  1  0  0  0  0
 64 65  2  0  0  0  0
 63 67  4  0  0  0  0
 66 67  1  0  0  0  0
 67 68  2  0  0  0  0
 66 69  1  0  0  0  0
 66 70  1  0  0  0  0
 66 71  1  0  0  0  0
 38 72  1  0  0  0  0
 64 72  4  0  0  0  0
 72 73  1  0  0  0  0
 73 74  1  0  0  0  0
 73 75  1  0  0  0  0
 73 76  1  0  0  0  0
M  END
