 xtb: 6.7.1pre (5071a88)
          08202619033D

 76 76  0     0  0            999 V2000
    0.3996    0.1274    1.0863 N   0  0  0  0  0  0  0  0  0  0  0  0
    1.7492   -0.0964    0.7200 C   0  0  0  0  0  0  0  0  0  0  0  0
    2.7690    0.5715    1.3927 C   0  0  0  0  0  0  0  0  0  0  0  0
    4.0890    0.3574    1.0543 C   0  0  0  0  0  0  0  0  0  0  0  0
    4.4352   -0.5270    0.0381 C   0  0  0  0  0  0  0  0  0  0  0  0
    3.4193   -1.2207   -0.6042 C   0  0  0  0  0  0  0  0  0  0  0  0
    2.0940   -1.0177   -0.2631 C   0  0  0  0  0  0  0  0  0  0  0  0
    5.8703   -0.6834   -0.3799 C   0  0  0  0  0  0  0  0  0  0  0  0
    6.4427    0.6498   -0.8675 C   0  0  0  0  0  0  0  0  0  0  0  0
   -0.2852    1.2722    0.5281 C   0  0  0  0  0  0  0  0  0  0  0  0
    0.4938    2.5710    0.6941 C   0  0  0  0  0  0  0  0  0  0  0  0
   -0.3822    3.8080    0.4353 C   0  0  0  0  0  0  0  0  0  0  0  0
    0.4887    5.0443    0.1576 C   0  0  0  0  0  0  0  0  0  0  0  0
    0.8853    5.1389   -1.3150 C   0  0  0  0  0  0  0  0  0  0  0  0
    1.8917    6.2566   -1.5579 C   0  0  0  0  0  0  0  0  0  0  0  0
   -0.5361    1.1024   -0.8706 O   0  0  0  0  0  0  0  0  0  0  0  0
   -2.2700    4.5148    3.5441 N   0  0  0  0  0  0  0  0  0  0  0  0
   -3.2882    4.0331    2.7759 C   0  0  0  0  0  0  0  0  0  0  0  0
   -2.7410    3.7008    1.5133 C   0  0  0  0  0  0  0  0  0  0  0  0
   -1.3447    4.0135    1.5670 C   0  0  0  0  0  0  0  0  0  0  0  0
   -4.6330    3.8527    3.0678 C   0  0  0  0  0  0  0  0  0  0  0  0
   -3.5800    3.1720    0.5307 C   0  0  0  0  0  0  0  0  0  0  0  0
   -1.0989    4.5018    2.8235 C   0  0  0  0  0  0  0  0  0  0  0  0
   -5.4364    3.3309    2.0766 C   0  0  0  0  0  0  0  0  0  0  0  0
   -4.9137    2.9954    0.8252 C   0  0  0  0  0  0  0  0  0  0  0  0
    0.1491    5.0037    3.4619 C   0  0  0  0  0  0  0  0  0  0  0  0
   -1.9365    2.6747   -2.7159 O   0  0  0  0  0  0  0  0  0  0  0  0
   -0.1485   -0.7104    0.9092 H   0  0  0  0  0  0  0  0  0  0  0  0
   -1.1148    0.3406   -0.9948 H   0  0  0  0  0  0  0  0  0  0  0  0
    2.5210    1.2460    2.1956 H   0  0  0  0  0  0  0  0  0  0  0  0
    4.8644    0.8826    1.5922 H   0  0  0  0  0  0  0  0  0  0  0  0
    3.6648   -1.9301   -1.3826 H   0  0  0  0  0  0  0  0  0  0  0  0
    1.3189   -1.5735   -0.7741 H   0  0  0  0  0  0  0  0  0  0  0  0
    5.9625   -1.4165   -1.1834 H   0  0  0  0  0  0  0  0  0  0  0  0
    6.4803   -1.0327    0.4554 H   0  0  0  0  0  0  0  0  0  0  0  0
    6.5985    1.3405   -0.0300 H   0  0  0  0  0  0  0  0  0  0  0  0
    4.8475    0.6956   -2.2477 H   0  0  0  0  0  0  0  0  0  0  0  0
    7.9702    2.4786   -1.5008 H   0  0  0  0  0  0  0  0  0  0  0  0
   -1.2478    1.3503    1.0563 H   0  0  0  0  0  0  0  0  0  0  0  0
    1.3354    2.5551    0.0006 H   0  0  0  0  0  0  0  0  0  0  0  0
   -0.9767    3.6254   -0.4614 H   0  0  0  0  0  0  0  0  0  0  0  0
   -0.0701    5.9423    0.4253 H   0  0  0  0  0  0  0  0  0  0  0  0
    1.3889    5.0137    0.7739 H   0  0  0  0  0  0  0  0  0  0  0  0
    1.3173    4.1894   -1.6402 H   0  0  0  0  0  0  0  0  0  0  0  0
   -0.0112    5.3259   -1.9080 H   0  0  0  0  0  0  0  0  0  0  0  0
    2.1396    6.3261   -2.6149 H   0  0  0  0  0  0  0  0  0  0  0  0
    1.4783    7.2117   -1.2429 H   0  0  0  0  0  0  0  0  0  0  0  0
    2.8090    6.0791   -0.9989 H   0  0  0  0  0  0  0  0  0  0  0  0
   -2.3555    4.8433    4.4909 H   0  0  0  0  0  0  0  0  0  0  0  0
   -2.9245    5.3882   -1.2229 H   0  0  0  0  0  0  0  0  0  0  0  0
   -5.0326    4.1133    4.0372 H   0  0  0  0  0  0  0  0  0  0  0  0
   -3.1983    2.9023   -0.4423 H   0  0  0  0  0  0  0  0  0  0  0  0
   -6.4882    3.1775    2.2675 H   0  0  0  0  0  0  0  0  0  0  0  0
   -5.5756    2.5895    0.0742 H   0  0  0  0  0  0  0  0  0  0  0  0
    1.0258    4.5506    3.0110 H   0  0  0  0  0  0  0  0  0  0  0  0
    0.2313    6.0855    3.3475 H   0  0  0  0  0  0  0  0  0  0  0  0
    0.1457    4.7748    4.5270 H   0  0  0  0  0  0  0  0  0  0  0  0
    0.8746    2.6071    1.7125 H   0  0  0  0  0  0  0  0  0  0  0  0
   -1.4415    2.7688   -3.5314 H   0  0  0  0  0  0  0  0  0  0  0  0
   -2.4688    5.3779   -2.0668 O   0  0  0  0  0  0  0  0  0  0  0  0
   -1.3490    2.2321   -2.0810 H   0  0  0  0  0  0  0  0  0  0  0  0
   -2.4157    4.4462   -2.3311 H   0  0  0  0  0  0  0  0  0  0  0  0
    5.5024    1.2935   -1.7694 N   0  0  0  0  0  0  0  0  0  0  0  0
    7.8005    0.4546   -1.5774 C   0  0  0  0  0  0  0  0  0  0  0  0
    8.2182   -0.6320   -1.9207 O   0  0  0  0  0  0  0  0  0  0  0  0
    4.2461    3.1032   -2.7255 C   0  0  0  0  0  0  0  0  0  0  0  0
    5.4045    2.6325   -1.8794 C   0  0  0  0  0  0  0  0  0  0  0  0
    6.2005    3.3845   -1.3431 O   0  0  0  0  0  0  0  0  0  0  0  0
    3.3236    2.6292   -2.3976 H   0  0  0  0  0  0  0  0  0  0  0  0
    4.4225    2.8423   -3.7671 H   0  0  0  0  0  0  0  0  0  0  0  0
    4.1521    4.1817   -2.6417 H   0  0  0  0  0  0  0  0  0  0  0  0
    8.4407    1.6184   -1.7648 N   0  0  0  0  0  0  0  0  0  0  0  0
    9.7074    1.7104   -2.4475 C   0  0  0  0  0  0  0  0  0  0  0  0
   10.4473    2.1948   -1.8084 H   0  0  0  0  0  0  0  0  0  0  0  0
    9.6089    2.2816   -3.3728 H   0  0  0  0  0  0  0  0  0  0  0  0
   10.0352    0.6983   -2.6800 H   0  0  0  0  0  0  0  0  0  0  0  0
  1  2  1  0  0  0  0
  2  3  4  0  0  0  0
  3  4  4  0  0  0  0
  4  5  4  0  0  0  0
  5  6  4  0  0  0  0
  2  7  4  0  0  0  0
  6  7  4  0  0  0  0
  5  8  1  0  0  0  0
  8  9  1  0  0  0  0
  1 10  1  0  0  0  0
 10 11  1  0  0  0  0
 11 12  1  0  0  0  0
 12 13  1  0  0  0  0
 13 14  1  0  0  0  0
 14 15  1  0  0  0  0
 10 16  1  0  0  0  0
 17 18  1  0  0  0  0
 18 19  4  0  0  0  0
 12 20  1  0  0  0  0
 19 20  4  0  0  0  0
 18 21  4  0  0  0  0
 19 22  4  0  0  0  0
 17 23  1  0  0  0  0
 20 23  2  0  0  0  0
 21 24  4  0  0  0  0
 22 25  2  0  0  0  0
 24 25  4  0  0  0  0
 23 26  1  0  0  0  0
  1 28  1  0  0  0  0
 16 29  1  0  0  0  0
  3 30  1  0  0  0  0
  4 31  1  0  0  0  0
  6 32  1  0  0  0  0
  7 33  1  0  0  0  0
  8 34  1  0  0  0  0
  8 35  1  0  0  0  0
  9 36  1  0  0  0  0
 10 39  1  0  0  0  0
 11 40  1  0  0  0  0
 12 41  1  0  0  0  0
 13 42  1  0  0  0  0
 13 43  1  0  0  0  0
 14 44  1  0  0  0  0
 14 45  1  0  0  0  0
 15 46  1  0  0  0  0
 15 47  1  0  0  0  0
 15 48  1  0  0  0  0
 17 49  1  0  0  0  0
 21 51  1  0  0  0  0
 22 52  1  0  0  0  0
 24 53  1  0  0  0  0
 25 54  1  0  0  0  0
 26 55  1  0  0  0  0
 26 56  1  0  0  0  0
 26 57  1  0  0  0  0
 11 58  1  0  0  0  0
 27 59  1  0  0  0  0
 50 60  1  0  0  0  0
 27 61  1  0  0  0  0
 60 62  1  0  0  0  0
  9 63  1  0  0  0  0
 37 63  1  0  0  0  0
  9 64  1  0  0  0  0
 64 65  2  0  0  0  0
 63 67  4  0  0  0  0
 66 67  1  0  0  0  0
 67 68  2  0  0  0  0
 66 69  1  0  0  0  0
 66 70  1  0  0  0  0
 66 71  1  0  0  0  0
 38 72  1  0  0  0  0
 64 72  4  0  0  0  0
 72 73  1  0  0  0  0
 73 74  1  0  0  0  0
 73 75  1  0  0  0  0
 73 76  1  0  0  0  0
M  END
