 xtb: 6.7.1pre (5071a88)
          08202601053D

 57 54  0     0  0            999 V2000
   -0.2052   -0.5326    0.7336 N   0  0  0  0  0  0  0  0  0  0  0  0
    1.1705   -0.4496    0.7855 C   0  0  0  0  0  0  0  0  0  0  0  0
    1.7827    0.6068    1.4630 C   0  0  0  0  0  0  0  0  0  0  0  0
    3.1478    0.7844    1.3956 C   0  0  0  0  0  0  0  0  0  0  0  0
    3.9475   -0.0808    0.6566 C   0  0  0  0  0  0  0  0  0  0  0  0
    3.3398   -1.1491    0.0089 C   0  0  0  0  0  0  0  0  0  0  0  0
    1.9730   -1.3393    0.0724 C   0  0  0  0  0  0  0  0  0  0  0  0
    5.4186    0.1844    0.5099 C   0  0  0  0  0  0  0  0  0  0  0  0
    5.6538    1.3895   -0.4044 C   0  0  0  0  0  0  0  0  0  0  0  0
   -0.9670    0.6148   -1.1751 C   0  0  0  0  0  0  0  0  0  0  0  0
    0.1881    1.5010   -1.1625 C   0  0  0  0  0  0  0  0  0  0  0  0
    0.1630    2.7304   -0.6437 C   0  0  0  0  0  0  0  0  0  0  0  0
    1.3230    3.6563   -0.6166 C   0  0  0  0  0  0  0  0  0  0  0  0
    1.1274    4.8206   -1.5984 C   0  0  0  0  0  0  0  0  0  0  0  0
    2.3341    5.7494   -1.5906 C   0  0  0  0  0  0  0  0  0  0  0  0
   -2.0912    0.9053   -0.7829 O   0  0  0  0  0  0  0  0  0  0  0  0
   -2.9065   -1.5548    0.5288 O   0  0  0  0  0  0  0  0  0  0  0  0
   -0.7056   -0.0093    1.4405 H   0  0  0  0  0  0  0  0  0  0  0  0
   -0.6227   -1.4348    0.5458 H   0  0  0  0  0  0  0  0  0  0  0  0
    1.1694    1.2882    2.0337 H   0  0  0  0  0  0  0  0  0  0  0  0
    3.6039    1.6095    1.9233 H   0  0  0  0  0  0  0  0  0  0  0  0
    3.9451   -1.8497   -0.5505 H   0  0  0  0  0  0  0  0  0  0  0  0
    1.5142   -2.1725   -0.4403 H   0  0  0  0  0  0  0  0  0  0  0  0
    5.9332   -0.6796    0.0861 H   0  0  0  0  0  0  0  0  0  0  0  0
    5.8744    0.3995    1.4775 H   0  0  0  0  0  0  0  0  0  0  0  0
    5.2704    2.3075    0.0574 H   0  0  0  0  0  0  0  0  0  0  0  0
    4.7345    0.2627   -1.9308 H   0  0  0  0  0  0  0  0  0  0  0  0
    6.6380    3.3896   -1.4786 H   0  0  0  0  0  0  0  0  0  0  0  0
   -0.8111   -0.3233   -1.7333 H   0  0  0  0  0  0  0  0  0  0  0  0
    1.1011    1.1001   -1.5777 H   0  0  0  0  0  0  0  0  0  0  0  0
   -0.7692    3.1073   -0.2419 H   0  0  0  0  0  0  0  0  0  0  0  0
    1.4340    4.0663    0.3903 H   0  0  0  0  0  0  0  0  0  0  0  0
    2.2384    3.1217   -0.8737 H   0  0  0  0  0  0  0  0  0  0  0  0
    0.9834    4.4146   -2.6020 H   0  0  0  0  0  0  0  0  0  0  0  0
    0.2253    5.3758   -1.3311 H   0  0  0  0  0  0  0  0  0  0  0  0
    2.2041    6.5472   -2.3180 H   0  0  0  0  0  0  0  0  0  0  0  0
    2.4640    6.1984   -0.6082 H   0  0  0  0  0  0  0  0  0  0  0  0
    3.2374    5.1969   -1.8379 H   0  0  0  0  0  0  0  0  0  0  0  0
   -3.0013   -1.0555    1.3466 H   0  0  0  0  0  0  0  0  0  0  0  0
   -2.9152   -0.8880   -0.1690 H   0  0  0  0  0  0  0  0  0  0  0  0
   -2.4950    1.0473    1.9179 O   0  0  0  0  0  0  0  0  0  0  0  0
   -3.1519    1.6621    2.2479 H   0  0  0  0  0  0  0  0  0  0  0  0
   -2.4539    1.1759    0.9537 H   0  0  0  0  0  0  0  0  0  0  0  0
    4.9309    1.2113   -1.6527 N   0  0  0  0  0  0  0  0  0  0  0  0
    7.1580    1.5849   -0.6976 C   0  0  0  0  0  0  0  0  0  0  0  0
    7.9927    0.7382   -0.4565 O   0  0  0  0  0  0  0  0  0  0  0  0
    3.6790    1.8426   -3.6051 C   0  0  0  0  0  0  0  0  0  0  0  0
    4.4946    2.2409   -2.3980 C   0  0  0  0  0  0  0  0  0  0  0  0
    4.7519    3.4014   -2.1172 O   0  0  0  0  0  0  0  0  0  0  0  0
    2.9271    1.1039   -3.3383 H   0  0  0  0  0  0  0  0  0  0  0  0
    4.3366    1.4149   -4.3598 H   0  0  0  0  0  0  0  0  0  0  0  0
    3.1966    2.7230   -4.0197 H   0  0  0  0  0  0  0  0  0  0  0  0
    7.4169    2.7818   -1.2471 N   0  0  0  0  0  0  0  0  0  0  0  0
    8.7402    3.1766   -1.6629 C   0  0  0  0  0  0  0  0  0  0  0  0
    9.0225    4.1153   -1.1841 H   0  0  0  0  0  0  0  0  0  0  0  0
    8.7853    3.3027   -2.7466 H   0  0  0  0  0  0  0  0  0  0  0  0
    9.4322    2.3919   -1.3611 H   0  0  0  0  0  0  0  0  0  0  0  0
  1  2  1  0  0  0  0
  2  3  4  0  0  0  0
  3  4  4  0  0  0  0
  4  5  4  0  0  0  0
  5  6  4  0  0  0  0
  2  7  4  0  0  0  0
  6  7  4  0  0  0  0
  5  8  1  0  0  0  0
  8  9  1  0  0  0  0
 10 11  1  0  0  0  0
 11 12  2  0  0  0  0
 12 13  1  0  0  0  0
 13 14  1  0  0  0  0
 14 15  1  0  0  0  0
 10 16  2  0  0  0  0
  1 18  1  0  0  0  0
  1 19  1  0  0  0  0
  3 20  1  0  0  0  0
  4 21  1  0  0  0  0
  6 22  1  0  0  0  0
  7 23  1  0  0  0  0
  8 24  1  0  0  0  0
  8 25  1  0  0  0  0
  9 26  1  0  0  0  0
 10 29  1  0  0  0  0
 11 30  1  0  0  0  0
 12 31  1  0  0  0  0
 13 32  1  0  0  0  0
 13 33  1  0  0  0  0
 14 34  1  0  0  0  0
 14 35  1  0  0  0  0
 15 36  1  0  0  0  0
 15 37  1  0  0  0  0
 15 38  1  0  0  0  0
 17 39  1  0  0  0  0
 17 40  1  0  0  0  0
 41 42  1  0  0  0  0
 41 43  1  0  0  0  0
  9 44  1  0  0  0  0
 27 44  1  0  0  0  0
  9 45  1  0  0  0  0
 45 46  2  0  0  0  0
 44 48  4  0  0  0  0
 47 48  1  0  0  0  0
 48 49  2  0  0  0  0
 47 50  1  0  0  0  0
 47 51  1  0  0  0  0
 47 52  1  0  0  0  0
 28 53  1  0  0  0  0
 45 53  4  0  0  0  0
 53 54  1  0  0  0  0
 54 55  1  0  0  0  0
 54 56  1  0  0  0  0
 54 57  1  0  0  0  0
M  END
