 xtb: 6.7.1pre (5071a88)
          08202604033D

 57 54  0     0  0            999 V2000
   -0.2353   -0.6110    0.5289 N   0  0  0  0  0  0  0  0  0  0  0  0
    1.1427   -0.5671    0.5704 C   0  0  0  0  0  0  0  0  0  0  0  0
    1.7887    0.3959    1.3483 C   0  0  0  0  0  0  0  0  0  0  0  0
    3.1566    0.5491    1.2793 C   0  0  0  0  0  0  0  0  0  0  0  0
    3.9258   -0.2484    0.4388 C   0  0  0  0  0  0  0  0  0  0  0  0
    3.2847   -1.2275   -0.3097 C   0  0  0  0  0  0  0  0  0  0  0  0
    1.9146   -1.3933   -0.2455 C   0  0  0  0  0  0  0  0  0  0  0  0
    5.4002    0.0011    0.2969 C   0  0  0  0  0  0  0  0  0  0  0  0
    5.6471    1.2956   -0.4822 C   0  0  0  0  0  0  0  0  0  0  0  0
   -0.9793    0.7473   -1.2449 C   0  0  0  0  0  0  0  0  0  0  0  0
    0.1924    1.6054   -1.1425 C   0  0  0  0  0  0  0  0  0  0  0  0
    0.1921    2.7720   -0.4941 C   0  0  0  0  0  0  0  0  0  0  0  0
    1.3700    3.6670   -0.3721 C   0  0  0  0  0  0  0  0  0  0  0  0
    1.1889    4.9425   -1.2075 C   0  0  0  0  0  0  0  0  0  0  0  0
    2.4175    5.8368   -1.1098 C   0  0  0  0  0  0  0  0  0  0  0  0
   -2.0970    1.0157   -0.8196 O   0  0  0  0  0  0  0  0  0  0  0  0
   -2.9690   -1.5303    0.2626 O   0  0  0  0  0  0  0  0  0  0  0  0
   -0.7143   -0.1511    1.2923 H   0  0  0  0  0  0  0  0  0  0  0  0
   -0.6782   -1.4782    0.2545 H   0  0  0  0  0  0  0  0  0  0  0  0
    1.1992    1.0255    1.9980 H   0  0  0  0  0  0  0  0  0  0  0  0
    3.6391    1.3022    1.8854 H   0  0  0  0  0  0  0  0  0  0  0  0
    3.8658   -1.8770   -0.9505 H   0  0  0  0  0  0  0  0  0  0  0  0
    1.4298   -2.1563   -0.8373 H   0  0  0  0  0  0  0  0  0  0  0  0
    5.8895   -0.8205   -0.2289 H   0  0  0  0  0  0  0  0  0  0  0  0
    5.8751    0.0984    1.2743 H   0  0  0  0  0  0  0  0  0  0  0  0
    5.2864    2.1633    0.0837 H   0  0  0  0  0  0  0  0  0  0  0  0
    4.6887    0.3609   -2.1110 H   0  0  0  0  0  0  0  0  0  0  0  0
    6.6544    3.3885   -1.3340 H   0  0  0  0  0  0  0  0  0  0  0  0
   -0.8424   -0.1291   -1.8998 H   0  0  0  0  0  0  0  0  0  0  0  0
    1.0966    1.2350   -1.6028 H   0  0  0  0  0  0  0  0  0  0  0  0
   -0.7314    3.1209   -0.0490 H   0  0  0  0  0  0  0  0  0  0  0  0
    1.4983    3.9531    0.6749 H   0  0  0  0  0  0  0  0  0  0  0  0
    2.2723    3.1494   -0.7005 H   0  0  0  0  0  0  0  0  0  0  0  0
    1.0223    4.6606   -2.2494 H   0  0  0  0  0  0  0  0  0  0  0  0
    0.3039    5.4821   -0.8627 H   0  0  0  0  0  0  0  0  0  0  0  0
    2.2971    6.7176   -1.7359 H   0  0  0  0  0  0  0  0  0  0  0  0
    2.5716    6.1634   -0.0836 H   0  0  0  0  0  0  0  0  0  0  0  0
    3.3035    5.2970   -1.4354 H   0  0  0  0  0  0  0  0  0  0  0  0
   -3.0409   -1.1043    1.1232 H   0  0  0  0  0  0  0  0  0  0  0  0
   -2.9632   -0.8031   -0.3719 H   0  0  0  0  0  0  0  0  0  0  0  0
   -2.4773    0.9150    1.8859 O   0  0  0  0  0  0  0  0  0  0  0  0
   -3.1286    1.5031    2.2710 H   0  0  0  0  0  0  0  0  0  0  0  0
   -2.4360    1.1302    0.9372 H   0  0  0  0  0  0  0  0  0  0  0  0
    4.9054    1.2692   -1.7319 N   0  0  0  0  0  0  0  0  0  0  0  0
    7.1506    1.4972   -0.7740 C   0  0  0  0  0  0  0  0  0  0  0  0
    7.9720    0.6136   -0.6463 O   0  0  0  0  0  0  0  0  0  0  0  0
    3.6416    2.1355   -3.5841 C   0  0  0  0  0  0  0  0  0  0  0  0
    4.4789    2.3827   -2.3517 C   0  0  0  0  0  0  0  0  0  0  0  0
    4.7611    3.5000   -1.9472 O   0  0  0  0  0  0  0  0  0  0  0  0
    2.8885    1.3744   -3.3956 H   0  0  0  0  0  0  0  0  0  0  0  0
    4.2845    1.7977   -4.3949 H   0  0  0  0  0  0  0  0  0  0  0  0
    3.1596    3.0618   -3.8832 H   0  0  0  0  0  0  0  0  0  0  0  0
    7.4250    2.7456   -1.1838 N   0  0  0  0  0  0  0  0  0  0  0  0
    8.7498    3.1632   -1.5718 C   0  0  0  0  0  0  0  0  0  0  0  0
    9.0570    4.0337   -0.9903 H   0  0  0  0  0  0  0  0  0  0  0  0
    8.7821    3.4156   -2.6336 H   0  0  0  0  0  0  0  0  0  0  0  0
    9.4306    2.3363   -1.3756 H   0  0  0  0  0  0  0  0  0  0  0  0
  1  2  1  0  0  0  0
  2  3  4  0  0  0  0
  3  4  4  0  0  0  0
  4  5  4  0  0  0  0
  5  6  4  0  0  0  0
  2  7  4  0  0  0  0
  6  7  4  0  0  0  0
  5  8  1  0  0  0  0
  8  9  1  0  0  0  0
 10 11  1  0  0  0  0
 11 12  2  0  0  0  0
 12 13  1  0  0  0  0
 13 14  1  0  0  0  0
 14 15  1  0  0  0  0
 10 16  2  0  0  0  0
  1 18  1  0  0  0  0
  1 19  1  0  0  0  0
  3 20  1  0  0  0  0
  4 21  1  0  0  0  0
  6 22  1  0  0  0  0
  7 23  1  0  0  0  0
  8 24  1  0  0  0  0
  8 25  1  0  0  0  0
  9 26  1  0  0  0  0
 10 29  1  0  0  0  0
 11 30  1  0  0  0  0
 12 31  1  0  0  0  0
 13 32  1  0  0  0  0
 13 33  1  0  0  0  0
 14 34  1  0  0  0  0
 14 35  1  0  0  0  0
 15 36  1  0  0  0  0
 15 37  1  0  0  0  0
 15 38  1  0  0  0  0
 17 39  1  0  0  0  0
 17 40  1  0  0  0  0
 41 42  1  0  0  0  0
 41 43  1  0  0  0  0
  9 44  1  0  0  0  0
 27 44  1  0  0  0  0
  9 45  1  0  0  0  0
 45 46  2  0  0  0  0
 44 48  4  0  0  0  0
 47 48  1  0  0  0  0
 48 49  2  0  0  0  0
 47 50  1  0  0  0  0
 47 51  1  0  0  0  0
 47 52  1  0  0  0  0
 28 53  1  0  0  0  0
 45 53  4  0  0  0  0
 53 54  1  0  0  0  0
 54 55  1  0  0  0  0
 54 56  1  0  0  0  0
 54 57  1  0  0  0  0
M  END
