 xtb: 6.7.1pre (5071a88)
          08202618583D

 76 76  0     0  0            999 V2000
   -0.2309    0.5288    0.0869 N   0  0  0  0  0  0  0  0  0  0  0  0
    1.1249    0.1998    0.0602 C   0  0  0  0  0  0  0  0  0  0  0  0
    1.9368    0.3682    1.1807 C   0  0  0  0  0  0  0  0  0  0  0  0
    3.2794    0.0629    1.1169 C   0  0  0  0  0  0  0  0  0  0  0  0
    3.8426   -0.4191   -0.0575 C   0  0  0  0  0  0  0  0  0  0  0  0
    3.0098   -0.6669   -1.1415 C   0  0  0  0  0  0  0  0  0  0  0  0
    1.6608   -0.3808   -1.0862 C   0  0  0  0  0  0  0  0  0  0  0  0
    5.3316   -0.4989   -0.2041 C   0  0  0  0  0  0  0  0  0  0  0  0
    5.8269    0.9132   -0.5678 C   0  0  0  0  0  0  0  0  0  0  0  0
   -0.6536    1.6905    0.3803 C   0  0  0  0  0  0  0  0  0  0  0  0
    0.1255    2.9111    0.6622 C   0  0  0  0  0  0  0  0  0  0  0  0
   -0.5713    4.2262    0.2312 C   0  0  0  0  0  0  0  0  0  0  0  0
    0.2808    5.1511   -0.6230 C   0  0  0  0  0  0  0  0  0  0  0  0
    0.3324    4.7012   -2.0808 C   0  0  0  0  0  0  0  0  0  0  0  0
    1.2047    5.6305   -2.9154 C   0  0  0  0  0  0  0  0  0  0  0  0
   -1.5778   -0.1641   -2.2767 O   0  0  0  0  0  0  0  0  0  0  0  0
   -0.7937    2.6932    3.0604 N   0  0  0  0  0  0  0  0  0  0  0  0
   -2.0670    3.2074    3.0014 C   0  0  0  0  0  0  0  0  0  0  0  0
   -2.0930    4.4085    2.2765 C   0  0  0  0  0  0  0  0  0  0  0  0
   -0.7290    4.6508    1.7056 C   0  0  0  0  0  0  0  0  0  0  0  0
   -3.2187    2.7167    3.5930 C   0  0  0  0  0  0  0  0  0  0  0  0
   -3.2565    5.1281    2.1504 C   0  0  0  0  0  0  0  0  0  0  0  0
    0.0756    3.4104    2.1615 C   0  0  0  0  0  0  0  0  0  0  0  0
   -4.3890    3.4496    3.4560 C   0  0  0  0  0  0  0  0  0  0  0  0
   -4.4143    4.6399    2.7497 C   0  0  0  0  0  0  0  0  0  0  0  0
    1.4405    3.6553    2.7759 C   0  0  0  0  0  0  0  0  0  0  0  0
   -0.7954   -0.3501    2.9619 O   0  0  0  0  0  0  0  0  0  0  0  0
   -1.1561   -0.0972   -1.3990 H   0  0  0  0  0  0  0  0  0  0  0  0
   -0.3504    0.8990   -3.1582 H   0  0  0  0  0  0  0  0  0  0  0  0
    1.5022    0.7420    2.0949 H   0  0  0  0  0  0  0  0  0  0  0  0
    3.9064    0.2315    1.9805 H   0  0  0  0  0  0  0  0  0  0  0  0
    3.4233   -1.0778   -2.0518 H   0  0  0  0  0  0  0  0  0  0  0  0
    1.0350   -0.5490   -1.9472 H   0  0  0  0  0  0  0  0  0  0  0  0
    5.6217   -1.1947   -0.9930 H   0  0  0  0  0  0  0  0  0  0  0  0
    5.8178   -0.8082    0.7208 H   0  0  0  0  0  0  0  0  0  0  0  0
    5.5444    1.6118    0.2305 H   0  0  0  0  0  0  0  0  0  0  0  0
    5.2782    0.8257   -2.5880 H   0  0  0  0  0  0  0  0  0  0  0  0
    7.1281    2.9163   -1.2285 H   0  0  0  0  0  0  0  0  0  0  0  0
   -1.7367    1.7969    0.4129 H   0  0  0  0  0  0  0  0  0  0  0  0
    1.1493    2.8051    0.2975 H   0  0  0  0  0  0  0  0  0  0  0  0
   -1.5343    4.0599   -0.2610 H   0  0  0  0  0  0  0  0  0  0  0  0
   -0.1376    6.1605   -0.5710 H   0  0  0  0  0  0  0  0  0  0  0  0
    1.2955    5.1878   -0.2217 H   0  0  0  0  0  0  0  0  0  0  0  0
    0.7235    3.6843   -2.1330 H   0  0  0  0  0  0  0  0  0  0  0  0
   -0.6808    4.6906   -2.4909 H   0  0  0  0  0  0  0  0  0  0  0  0
    1.2557    5.2886   -3.9468 H   0  0  0  0  0  0  0  0  0  0  0  0
    0.8024    6.6419   -2.9091 H   0  0  0  0  0  0  0  0  0  0  0  0
    2.2135    5.6653   -2.5095 H   0  0  0  0  0  0  0  0  0  0  0  0
   -0.6538    1.7108    3.2441 H   0  0  0  0  0  0  0  0  0  0  0  0
   -0.3186    5.6295    1.9536 H   0  0  0  0  0  0  0  0  0  0  0  0
   -3.2008    1.7875    4.1414 H   0  0  0  0  0  0  0  0  0  0  0  0
   -3.2749    6.0513    1.5893 H   0  0  0  0  0  0  0  0  0  0  0  0
   -5.2980    3.0812    3.9098 H   0  0  0  0  0  0  0  0  0  0  0  0
   -5.3380    5.1915    2.6579 H   0  0  0  0  0  0  0  0  0  0  0  0
    2.0766    4.2020    2.0855 H   0  0  0  0  0  0  0  0  0  0  0  0
    1.3237    4.2333    3.6904 H   0  0  0  0  0  0  0  0  0  0  0  0
    1.9286    2.7158    3.0222 H   0  0  0  0  0  0  0  0  0  0  0  0
   -0.7418   -1.2346    3.3279 H   0  0  0  0  0  0  0  0  0  0  0  0
   -0.7576   -0.4351    2.0028 H   0  0  0  0  0  0  0  0  0  0  0  0
    0.3054    1.5212   -3.5136 O   0  0  0  0  0  0  0  0  0  0  0  0
   -2.5124    0.0059   -2.1482 H   0  0  0  0  0  0  0  0  0  0  0  0
   -0.1257    1.9820   -4.2346 H   0  0  0  0  0  0  0  0  0  0  0  0
    5.1781    1.4029   -1.7672 N   0  0  0  0  0  0  0  0  0  0  0  0
    7.3498    0.9509   -0.7479 C   0  0  0  0  0  0  0  0  0  0  0  0
    8.0680   -0.0102   -0.5787 O   0  0  0  0  0  0  0  0  0  0  0  0
    3.4503    2.4930   -3.0441 C   0  0  0  0  0  0  0  0  0  0  0  0
    4.1558    2.3008   -1.7280 C   0  0  0  0  0  0  0  0  0  0  0  0
    3.8811    2.9214   -0.7207 O   0  0  0  0  0  0  0  0  0  0  0  0
    4.0361    2.1184   -3.8786 H   0  0  0  0  0  0  0  0  0  0  0  0
    3.2374    3.5484   -3.1880 H   0  0  0  0  0  0  0  0  0  0  0  0
    2.4949    1.9682   -3.0155 H   0  0  0  0  0  0  0  0  0  0  0  0
    7.7943    2.1673   -1.1218 N   0  0  0  0  0  0  0  0  0  0  0  0
    9.1871    2.4542   -1.3585 C   0  0  0  0  0  0  0  0  0  0  0  0
    9.5459    3.2239   -0.6729 H   0  0  0  0  0  0  0  0  0  0  0  0
    9.3444    2.7888   -2.3857 H   0  0  0  0  0  0  0  0  0  0  0  0
    9.7419    1.5328   -1.1887 H   0  0  0  0  0  0  0  0  0  0  0  0
  1  2  1  0  0  0  0
  2  3  4  0  0  0  0
  3  4  4  0  0  0  0
  4  5  4  0  0  0  0
  5  6  4  0  0  0  0
  2  7  4  0  0  0  0
  6  7  4  0  0  0  0
  5  8  1  0  0  0  0
  8  9  1  0  0  0  0
  1 10  2  0  0  0  0
 10 11  1  0  0  0  0
 11 12  1  0  0  0  0
 12 13  1  0  0  0  0
 13 14  1  0  0  0  0
 14 15  1  0  0  0  0
 17 18  1  0  0  0  0
 18 19  4  0  0  0  0
 12 20  1  0  0  0  0
 19 20  1  0  0  0  0
 18 21  4  0  0  0  0
 19 22  4  0  0  0  0
 11 23  1  0  0  0  0
 17 23  1  0  0  0  0
 20 23  1  0  0  0  0
 21 24  4  0  0  0  0
 22 25  4  0  0  0  0
 24 25  4  0  0  0  0
 23 26  1  0  0  0  0
 16 28  1  0  0  0  0
  3 30  1  0  0  0  0
  4 31  1  0  0  0  0
  6 32  1  0  0  0  0
  7 33  1  0  0  0  0
  8 34  1  0  0  0  0
  8 35  1  0  0  0  0
  9 36  1  0  0  0  0
 10 39  1  0  0  0  0
 11 40  1  0  0  0  0
 12 41  1  0  0  0  0
 13 42  1  0  0  0  0
 13 43  1  0  0  0  0
 14 44  1  0  0  0  0
 14 45  1  0  0  0  0
 15 46  1  0  0  0  0
 15 47  1  0  0  0  0
 15 48  1  0  0  0  0
 17 49  1  0  0  0  0
 20 50  1  0  0  0  0
 21 51  1  0  0  0  0
 22 52  1  0  0  0  0
 24 53  1  0  0  0  0
 25 54  1  0  0  0  0
 26 55  1  0  0  0  0
 26 56  1  0  0  0  0
 26 57  1  0  0  0  0
 27 58  1  0  0  0  0
 27 59  1  0  0  0  0
 29 60  1  0  0  0  0
 16 61  1  0  0  0  0
 60 62  1  0  0  0  0
  9 63  1  0  0  0  0
 37 63  1  0  0  0  0
  9 64  1  0  0  0  0
 64 65  2  0  0  0  0
 63 67  4  0  0  0  0
 66 67  1  0  0  0  0
 67 68  2  0  0  0  0
 66 69  1  0  0  0  0
 66 70  1  0  0  0  0
 66 71  1  0  0  0  0
 38 72  1  0  0  0  0
 64 72  4  0  0  0  0
 72 73  1  0  0  0  0
 73 74  1  0  0  0  0
 73 75  1  0  0  0  0
 73 76  1  0  0  0  0
M  END
