 xtb: 6.7.1pre (5071a88)
          08312613173D

 76 76  0     0  0            999 V2000
    0.3613    0.0882    1.0557 N   0  0  0  0  0  0  0  0  0  0  0  0
    1.7108   -0.1271    0.6788 C   0  0  0  0  0  0  0  0  0  0  0  0
    2.7308    0.4967    1.3919 C   0  0  0  0  0  0  0  0  0  0  0  0
    4.0511    0.2953    1.0469 C   0  0  0  0  0  0  0  0  0  0  0  0
    4.3961   -0.5324   -0.0162 C   0  0  0  0  0  0  0  0  0  0  0  0
    3.3793   -1.1822   -0.7016 C   0  0  0  0  0  0  0  0  0  0  0  0
    2.0535   -0.9918   -0.3546 C   0  0  0  0  0  0  0  0  0  0  0  0
    5.8325   -0.6759   -0.4337 C   0  0  0  0  0  0  0  0  0  0  0  0
    6.4034    0.6708   -0.8837 C   0  0  0  0  0  0  0  0  0  0  0  0
   -0.3218    1.2439    0.5180 C   0  0  0  0  0  0  0  0  0  0  0  0
    0.4854    2.5277    0.6641 C   0  0  0  0  0  0  0  0  0  0  0  0
   -0.3722    3.7828    0.4341 C   0  0  0  0  0  0  0  0  0  0  0  0
    0.5177    5.0056    0.1574 C   0  0  0  0  0  0  0  0  0  0  0  0
    0.9012    5.1060   -1.3183 C   0  0  0  0  0  0  0  0  0  0  0  0
    1.9193    6.2128   -1.5626 C   0  0  0  0  0  0  0  0  0  0  0  0
   -0.6140    1.0808   -0.8735 O   0  0  0  0  0  0  0  0  0  0  0  0
   -2.1952    4.4916    3.5809 N   0  0  0  0  0  0  0  0  0  0  0  0
   -3.2355    4.0412    2.8234 C   0  0  0  0  0  0  0  0  0  0  0  0
   -2.7154    3.7121    1.5486 C   0  0  0  0  0  0  0  0  0  0  0  0
   -1.3120    3.9939    1.5837 C   0  0  0  0  0  0  0  0  0  0  0  0
   -4.5792    3.8872    3.1345 C   0  0  0  0  0  0  0  0  0  0  0  0
   -3.5812    3.2137    0.5734 C   0  0  0  0  0  0  0  0  0  0  0  0
   -1.0360    4.4619    2.8417 C   0  0  0  0  0  0  0  0  0  0  0  0
   -5.4095    3.3954    2.1501 C   0  0  0  0  0  0  0  0  0  0  0  0
   -4.9138    3.0633    0.8868 C   0  0  0  0  0  0  0  0  0  0  0  0
    0.2326    4.9305    3.4647 C   0  0  0  0  0  0  0  0  0  0  0  0
   -1.9818    2.6920   -2.7069 O   0  0  0  0  0  0  0  0  0  0  0  0
   -0.1880   -0.7455    0.8627 H   0  0  0  0  0  0  0  0  0  0  0  0
   -1.2209    0.3389   -0.9814 H   0  0  0  0  0  0  0  0  0  0  0  0
    2.4812    1.1260    2.2305 H   0  0  0  0  0  0  0  0  0  0  0  0
    4.8278    0.7843    1.6162 H   0  0  0  0  0  0  0  0  0  0  0  0
    3.6242   -1.8482   -1.5176 H   0  0  0  0  0  0  0  0  0  0  0  0
    1.2772   -1.5121   -0.8997 H   0  0  0  0  0  0  0  0  0  0  0  0
    5.9294   -1.3875   -1.2556 H   0  0  0  0  0  0  0  0  0  0  0  0
    6.4406   -1.0449    0.3944 H   0  0  0  0  0  0  0  0  0  0  0  0
    6.5218    1.3510   -0.0316 H   0  0  0  0  0  0  0  0  0  0  0  0
    4.8586    0.7152   -2.3202 H   0  0  0  0  0  0  0  0  0  0  0  0
    7.9323    2.5252   -1.4397 H   0  0  0  0  0  0  0  0  0  0  0  0
   -1.2684    1.3369    1.0719 H   0  0  0  0  0  0  0  0  0  0  0  0
    1.3056    2.4972   -0.0543 H   0  0  0  0  0  0  0  0  0  0  0  0
   -0.9844    3.6217   -0.4549 H   0  0  0  0  0  0  0  0  0  0  0  0
   -0.0225    5.9110    0.4380 H   0  0  0  0  0  0  0  0  0  0  0  0
    1.4232    4.9537    0.7645 H   0  0  0  0  0  0  0  0  0  0  0  0
    1.3184    4.1537   -1.6546 H   0  0  0  0  0  0  0  0  0  0  0  0
    0.0015    5.3087   -1.9014 H   0  0  0  0  0  0  0  0  0  0  0  0
    2.1554    6.2892   -2.6218 H   0  0  0  0  0  0  0  0  0  0  0  0
    1.5221    7.1703   -1.2338 H   0  0  0  0  0  0  0  0  0  0  0  0
    2.8407    6.0183   -1.0160 H   0  0  0  0  0  0  0  0  0  0  0  0
   -2.2592    4.8100    4.5329 H   0  0  0  0  0  0  0  0  0  0  0  0
   -2.9024    5.4227   -1.2084 H   0  0  0  0  0  0  0  0  0  0  0  0
   -4.9576    4.1449    4.1131 H   0  0  0  0  0  0  0  0  0  0  0  0
   -3.2207    2.9473   -0.4086 H   0  0  0  0  0  0  0  0  0  0  0  0
   -6.4614    3.2631    2.3558 H   0  0  0  0  0  0  0  0  0  0  0  0
   -5.5963    2.6813    0.1417 H   0  0  0  0  0  0  0  0  0  0  0  0
    1.0907    4.4414    3.0150 H   0  0  0  0  0  0  0  0  0  0  0  0
    0.3510    6.0070    3.3338 H   0  0  0  0  0  0  0  0  0  0  0  0
    0.2289    4.7171    4.5330 H   0  0  0  0  0  0  0  0  0  0  0  0
    0.8987    2.5532    1.6699 H   0  0  0  0  0  0  0  0  0  0  0  0
   -1.4865    2.7746   -3.5235 H   0  0  0  0  0  0  0  0  0  0  0  0
   -2.4501    5.4035   -2.0539 O   0  0  0  0  0  0  0  0  0  0  0  0
   -1.4043    2.2332   -2.0742 H   0  0  0  0  0  0  0  0  0  0  0  0
   -2.4173    4.4709   -2.3190 H   0  0  0  0  0  0  0  0  0  0  0  0
    5.4849    1.3150   -1.8074 N   0  0  0  0  0  0  0  0  0  0  0  0
    7.7862    0.5007   -1.5506 C   0  0  0  0  0  0  0  0  0  0  0  0
    8.2264   -0.5763   -1.8957 O   0  0  0  0  0  0  0  0  0  0  0  0
    4.2598    3.1227   -2.8074 C   0  0  0  0  0  0  0  0  0  0  0  0
    5.3832    2.6539   -1.9144 C   0  0  0  0  0  0  0  0  0  0  0  0
    6.1509    3.4081   -1.3410 O   0  0  0  0  0  0  0  0  0  0  0  0
    3.3312    2.6227   -2.5422 H   0  0  0  0  0  0  0  0  0  0  0  0
    4.4976    2.8931   -3.8443 H   0  0  0  0  0  0  0  0  0  0  0  0
    4.1396    4.1968   -2.7025 H   0  0  0  0  0  0  0  0  0  0  0  0
    8.4208    1.6733   -1.6986 N   0  0  0  0  0  0  0  0  0  0  0  0
    9.7081    1.7875   -2.3380 C   0  0  0  0  0  0  0  0  0  0  0  0
   10.4214    2.2707   -1.6684 H   0  0  0  0  0  0  0  0  0  0  0  0
    9.6341    2.3701   -3.2584 H   0  0  0  0  0  0  0  0  0  0  0  0
   10.0542    0.7820   -2.5728 H   0  0  0  0  0  0  0  0  0  0  0  0
  1  2  1  0  0  0  0
  2  3  4  0  0  0  0
  3  4  4  0  0  0  0
  4  5  4  0  0  0  0
  5  6  4  0  0  0  0
  2  7  4  0  0  0  0
  6  7  4  0  0  0  0
  5  8  1  0  0  0  0
  8  9  1  0  0  0  0
  1 10  1  0  0  0  0
 10 11  1  0  0  0  0
 11 12  1  0  0  0  0
 12 13  1  0  0  0  0
 13 14  1  0  0  0  0
 14 15  1  0  0  0  0
 10 16  1  0  0  0  0
 17 18  1  0  0  0  0
 18 19  4  0  0  0  0
 12 20  1  0  0  0  0
 19 20  4  0  0  0  0
 18 21  4  0  0  0  0
 19 22  4  0  0  0  0
 17 23  1  0  0  0  0
 20 23  2  0  0  0  0
 21 24  4  0  0  0  0
 22 25  2  0  0  0  0
 24 25  4  0  0  0  0
 23 26  1  0  0  0  0
  1 28  1  0  0  0  0
 16 29  1  0  0  0  0
  3 30  1  0  0  0  0
  4 31  1  0  0  0  0
  6 32  1  0  0  0  0
  7 33  1  0  0  0  0
  8 34  1  0  0  0  0
  8 35  1  0  0  0  0
  9 36  1  0  0  0  0
 10 39  1  0  0  0  0
 11 40  1  0  0  0  0
 12 41  1  0  0  0  0
 13 42  1  0  0  0  0
 13 43  1  0  0  0  0
 14 44  1  0  0  0  0
 14 45  1  0  0  0  0
 15 46  1  0  0  0  0
 15 47  1  0  0  0  0
 15 48  1  0  0  0  0
 17 49  1  0  0  0  0
 21 51  1  0  0  0  0
 22 52  1  0  0  0  0
 24 53  1  0  0  0  0
 25 54  1  0  0  0  0
 26 55  1  0  0  0  0
 26 56  1  0  0  0  0
 26 57  1  0  0  0  0
 11 58  1  0  0  0  0
 27 59  1  0  0  0  0
 50 60  1  0  0  0  0
 27 61  1  0  0  0  0
 60 62  1  0  0  0  0
  9 63  1  0  0  0  0
 37 63  1  0  0  0  0
  9 64  1  0  0  0  0
 64 65  2  0  0  0  0
 63 67  4  0  0  0  0
 66 67  1  0  0  0  0
 67 68  2  0  0  0  0
 66 69  1  0  0  0  0
 66 70  1  0  0  0  0
 66 71  1  0  0  0  0
 38 72  1  0  0  0  0
 64 72  4  0  0  0  0
 72 73  1  0  0  0  0
 73 74  1  0  0  0  0
 73 75  1  0  0  0  0
 73 76  1  0  0  0  0
M  END
