 xtb: 6.7.1pre (5071a88)
          08312613163D

 76 76  0     0  0            999 V2000
    0.2068   -0.2288    0.8750 N   0  0  0  0  0  0  0  0  0  0  0  0
    1.5707   -0.3241    0.4496 C   0  0  0  0  0  0  0  0  0  0  0  0
    2.5738    0.0099    1.3536 C   0  0  0  0  0  0  0  0  0  0  0  0
    3.9016   -0.0417    0.9637 C   0  0  0  0  0  0  0  0  0  0  0  0
    4.2428   -0.4328   -0.3291 C   0  0  0  0  0  0  0  0  0  0  0  0
    3.2337   -0.7832   -1.2220 C   0  0  0  0  0  0  0  0  0  0  0  0
    1.9013   -0.7361   -0.8370 C   0  0  0  0  0  0  0  0  0  0  0  0
    5.6826   -0.3956   -0.7664 C   0  0  0  0  0  0  0  0  0  0  0  0
    6.0829    1.0485   -1.1154 C   0  0  0  0  0  0  0  0  0  0  0  0
   -0.4553    1.0060    0.4459 C   0  0  0  0  0  0  0  0  0  0  0  0
    0.4473    2.2246    0.6150 C   0  0  0  0  0  0  0  0  0  0  0  0
   -0.3365    3.5250    0.3708 C   0  0  0  0  0  0  0  0  0  0  0  0
    0.6178    4.7348    0.3046 C   0  0  0  0  0  0  0  0  0  0  0  0
    1.3286    4.8228   -1.0491 C   0  0  0  0  0  0  0  0  0  0  0  0
    2.4435    5.8656   -1.0361 C   0  0  0  0  0  0  0  0  0  0  0  0
   -0.8227    0.9230   -0.9274 O   0  0  0  0  0  0  0  0  0  0  0  0
   -2.5427    3.9947    3.3228 N   0  0  0  0  0  0  0  0  0  0  0  0
   -3.4933    3.9706    2.3389 C   0  0  0  0  0  0  0  0  0  0  0  0
   -2.8174    3.7913    1.1077 C   0  0  0  0  0  0  0  0  0  0  0  0
   -1.4151    3.7161    1.4048 C   0  0  0  0  0  0  0  0  0  0  0  0
   -4.8777    4.0866    2.4206 C   0  0  0  0  0  0  0  0  0  0  0  0
   -3.5647    3.7227   -0.0727 C   0  0  0  0  0  0  0  0  0  0  0  0
   -1.2906    3.8445    2.7677 C   0  0  0  0  0  0  0  0  0  0  0  0
   -5.5890    4.0175    1.2362 C   0  0  0  0  0  0  0  0  0  0  0  0
   -4.9393    3.8365    0.0073 C   0  0  0  0  0  0  0  0  0  0  0  0
   -0.1041    3.8221    3.6751 C   0  0  0  0  0  0  0  0  0  0  0  0
    0.4853    2.3267   -3.0580 O   0  0  0  0  0  0  0  0  0  0  0  0
   -0.3190   -1.0037    0.4721 H   0  0  0  0  0  0  0  0  0  0  0  0
   -1.4997    0.2478   -1.0534 H   0  0  0  0  0  0  0  0  0  0  0  0
    2.3059    0.3122    2.3593 H   0  0  0  0  0  0  0  0  0  0  0  0
    4.6812    0.2277    1.6682 H   0  0  0  0  0  0  0  0  0  0  0  0
    3.4903   -1.0884   -2.2316 H   0  0  0  0  0  0  0  0  0  0  0  0
    1.1173   -0.9977   -1.5388 H   0  0  0  0  0  0  0  0  0  0  0  0
    5.8446   -1.0356   -1.6383 H   0  0  0  0  0  0  0  0  0  0  0  0
    6.3428   -0.7379    0.0351 H   0  0  0  0  0  0  0  0  0  0  0  0
    5.8147    1.7182   -0.2869 H   0  0  0  0  0  0  0  0  0  0  0  0
    5.4019    0.9196   -3.1008 H   0  0  0  0  0  0  0  0  0  0  0  0
    7.2375    2.8400   -2.4357 H   0  0  0  0  0  0  0  0  0  0  0  0
   -1.3675    1.1127    1.0599 H   0  0  0  0  0  0  0  0  0  0  0  0
    1.2707    2.1553   -0.0998 H   0  0  0  0  0  0  0  0  0  0  0  0
   -0.8290    3.4359   -0.6074 H   0  0  0  0  0  0  0  0  0  0  0  0
    0.0394    5.6513    0.4681 H   0  0  0  0  0  0  0  0  0  0  0  0
    1.3604    4.6659    1.1059 H   0  0  0  0  0  0  0  0  0  0  0  0
    1.7623    3.8516   -1.2995 H   0  0  0  0  0  0  0  0  0  0  0  0
    0.5964    5.0688   -1.8261 H   0  0  0  0  0  0  0  0  0  0  0  0
    2.8888    5.9456   -2.0284 H   0  0  0  0  0  0  0  0  0  0  0  0
    2.0596    6.8453   -0.7456 H   0  0  0  0  0  0  0  0  0  0  0  0
    3.2236    5.5705   -0.3336 H   0  0  0  0  0  0  0  0  0  0  0  0
   -2.7167    4.1391    4.3031 H   0  0  0  0  0  0  0  0  0  0  0  0
    0.3690    6.9880    2.4621 H   0  0  0  0  0  0  0  0  0  0  0  0
   -5.3758    4.2246    3.3732 H   0  0  0  0  0  0  0  0  0  0  0  0
   -3.0778    3.5808   -1.0315 H   0  0  0  0  0  0  0  0  0  0  0  0
   -6.6699    4.1036    1.2549 H   0  0  0  0  0  0  0  0  0  0  0  0
   -5.5351    3.7858   -0.8978 H   0  0  0  0  0  0  0  0  0  0  0  0
    0.8085    4.0395    3.1246 H   0  0  0  0  0  0  0  0  0  0  0  0
   -0.2183    4.5729    4.4579 H   0  0  0  0  0  0  0  0  0  0  0  0
   -0.0020    2.8427    4.1487 H   0  0  0  0  0  0  0  0  0  0  0  0
    0.8698    2.2159    1.6219 H   0  0  0  0  0  0  0  0  0  0  0  0
   -0.1711    3.0251   -3.0754 H   0  0  0  0  0  0  0  0  0  0  0  0
   -0.4010    6.7660    2.9888 O   0  0  0  0  0  0  0  0  0  0  0  0
    0.2150    1.7401   -2.3383 H   0  0  0  0  0  0  0  0  0  0  0  0
   -1.0000    6.2839    2.4119 H   0  0  0  0  0  0  0  0  0  0  0  0
    5.3650    1.5180   -2.2892 N   0  0  0  0  0  0  0  0  0  0  0  0
    7.5949    1.1559   -1.3374 C   0  0  0  0  0  0  0  0  0  0  0  0
    8.3800    0.3654   -0.8550 O   0  0  0  0  0  0  0  0  0  0  0  0
    3.4962    2.5092   -3.4249 C   0  0  0  0  0  0  0  0  0  0  0  0
    4.2997    2.3645   -2.1571 C   0  0  0  0  0  0  0  0  0  0  0  0
    4.0581    2.9573   -1.1273 O   0  0  0  0  0  0  0  0  0  0  0  0
    2.8027    1.6716   -3.4949 H   0  0  0  0  0  0  0  0  0  0  0  0
    4.1389    2.5086   -4.3034 H   0  0  0  0  0  0  0  0  0  0  0  0
    2.9125    3.4251   -3.3869 H   0  0  0  0  0  0  0  0  0  0  0  0
    7.9487    2.2086   -2.0995 N   0  0  0  0  0  0  0  0  0  0  0  0
    9.3406    2.5191   -2.3697 C   0  0  0  0  0  0  0  0  0  0  0  0
    9.6001    3.4892   -1.9388 H   0  0  0  0  0  0  0  0  0  0  0  0
    9.5162    2.5444   -3.4478 H   0  0  0  0  0  0  0  0  0  0  0  0
    9.9547    1.7408   -1.9162 H   0  0  0  0  0  0  0  0  0  0  0  0
  1  2  1  0  0  0  0
  2  3  4  0  0  0  0
  3  4  4  0  0  0  0
  4  5  4  0  0  0  0
  5  6  4  0  0  0  0
  2  7  4  0  0  0  0
  6  7  4  0  0  0  0
  5  8  1  0  0  0  0
  8  9  1  0  0  0  0
  1 10  1  0  0  0  0
 10 11  1  0  0  0  0
 11 12  1  0  0  0  0
 12 13  1  0  0  0  0
 13 14  1  0  0  0  0
 14 15  1  0  0  0  0
 10 16  1  0  0  0  0
 17 18  1  0  0  0  0
 18 19  4  0  0  0  0
 12 20  1  0  0  0  0
 19 20  1  0  0  0  0
 18 21  4  0  0  0  0
 19 22  4  0  0  0  0
 17 23  1  0  0  0  0
 20 23  2  0  0  0  0
 21 24  4  0  0  0  0
 22 25  4  0  0  0  0
 24 25  4  0  0  0  0
 23 26  1  0  0  0  0
  1 28  1  0  0  0  0
 16 29  1  0  0  0  0
  3 30  1  0  0  0  0
  4 31  1  0  0  0  0
  6 32  1  0  0  0  0
  7 33  1  0  0  0  0
  8 34  1  0  0  0  0
  8 35  1  0  0  0  0
  9 36  1  0  0  0  0
 10 39  1  0  0  0  0
 11 40  1  0  0  0  0
 12 41  1  0  0  0  0
 13 42  1  0  0  0  0
 13 43  1  0  0  0  0
 14 44  1  0  0  0  0
 14 45  1  0  0  0  0
 15 46  1  0  0  0  0
 15 47  1  0  0  0  0
 15 48  1  0  0  0  0
 17 49  1  0  0  0  0
 21 51  1  0  0  0  0
 22 52  1  0  0  0  0
 24 53  1  0  0  0  0
 25 54  1  0  0  0  0
 26 55  1  0  0  0  0
 26 56  1  0  0  0  0
 26 57  1  0  0  0  0
 11 58  1  0  0  0  0
 27 59  1  0  0  0  0
 50 60  1  0  0  0  0
 27 61  1  0  0  0  0
 60 62  1  0  0  0  0
  9 63  1  0  0  0  0
 37 63  1  0  0  0  0
  9 64  1  0  0  0  0
 64 65  2  0  0  0  0
 63 67  1  0  0  0  0
 66 67  1  0  0  0  0
 67 68  2  0  0  0  0
 66 69  1  0  0  0  0
 66 70  1  0  0  0  0
 66 71  1  0  0  0  0
 38 72  1  0  0  0  0
 64 72  4  0  0  0  0
 72 73  1  0  0  0  0
 73 74  1  0  0  0  0
 73 75  1  0  0  0  0
 73 76  1  0  0  0  0
M  END
