 xtb: 6.7.1pre (5071a88)
          08312613163D

 57 54  0     0  0            999 V2000
   -0.1659   -0.6388    0.5714 N   0  0  0  0  0  0  0  0  0  0  0  0
    1.2116   -0.5788    0.6032 C   0  0  0  0  0  0  0  0  0  0  0  0
    1.8542    0.3938    1.3719 C   0  0  0  0  0  0  0  0  0  0  0  0
    3.2199    0.5610    1.2903 C   0  0  0  0  0  0  0  0  0  0  0  0
    3.9897   -0.2309    0.4451 C   0  0  0  0  0  0  0  0  0  0  0  0
    3.3524   -1.2199   -0.2938 C   0  0  0  0  0  0  0  0  0  0  0  0
    1.9851   -1.4003   -0.2161 C   0  0  0  0  0  0  0  0  0  0  0  0
    5.4593    0.0358    0.2852 C   0  0  0  0  0  0  0  0  0  0  0  0
    5.6800    1.3403   -0.4849 C   0  0  0  0  0  0  0  0  0  0  0  0
   -0.9344    0.6758   -1.2167 C   0  0  0  0  0  0  0  0  0  0  0  0
    0.2021    1.5792   -1.1052 C   0  0  0  0  0  0  0  0  0  0  0  0
    0.1464    2.7569   -0.4799 C   0  0  0  0  0  0  0  0  0  0  0  0
    1.2898    3.6960   -0.3577 C   0  0  0  0  0  0  0  0  0  0  0  0
    1.0859    4.9370   -1.2387 C   0  0  0  0  0  0  0  0  0  0  0  0
    2.2834    5.8732   -1.1465 C   0  0  0  0  0  0  0  0  0  0  0  0
   -2.0685    0.9045   -0.8122 O   0  0  0  0  0  0  0  0  0  0  0  0
   -2.8205   -1.7084    0.2323 O   0  0  0  0  0  0  0  0  0  0  0  0
   -0.6472   -0.1815    1.3349 H   0  0  0  0  0  0  0  0  0  0  0  0
   -0.6015   -1.5123    0.3026 H   0  0  0  0  0  0  0  0  0  0  0  0
    1.2643    1.0209    2.0239 H   0  0  0  0  0  0  0  0  0  0  0  0
    3.6994    1.3215    1.8894 H   0  0  0  0  0  0  0  0  0  0  0  0
    3.9347   -1.8647   -0.9382 H   0  0  0  0  0  0  0  0  0  0  0  0
    1.5026   -2.1707   -0.8002 H   0  0  0  0  0  0  0  0  0  0  0  0
    5.9492   -0.7755   -0.2560 H   0  0  0  0  0  0  0  0  0  0  0  0
    5.9476    0.1285    1.2565 H   0  0  0  0  0  0  0  0  0  0  0  0
    5.3308    2.1999    0.1000 H   0  0  0  0  0  0  0  0  0  0  0  0
    4.6921    0.4216   -2.1052 H   0  0  0  0  0  0  0  0  0  0  0  0
    6.6508    3.4468   -1.3440 H   0  0  0  0  0  0  0  0  0  0  0  0
   -0.7532   -0.1990   -1.8632 H   0  0  0  0  0  0  0  0  0  0  0  0
    1.1284    1.2351   -1.5416 H   0  0  0  0  0  0  0  0  0  0  0  0
   -0.7972    3.0809   -0.0590 H   0  0  0  0  0  0  0  0  0  0  0  0
    1.3831    4.0196    0.6818 H   0  0  0  0  0  0  0  0  0  0  0  0
    2.2170    3.2002   -0.6488 H   0  0  0  0  0  0  0  0  0  0  0  0
    0.9498    4.6159   -2.2737 H   0  0  0  0  0  0  0  0  0  0  0  0
    0.1772    5.4587   -0.9300 H   0  0  0  0  0  0  0  0  0  0  0  0
    2.1504    6.7267   -1.8071 H   0  0  0  0  0  0  0  0  0  0  0  0
    2.4028    6.2414   -0.1298 H   0  0  0  0  0  0  0  0  0  0  0  0
    3.1936    5.3508   -1.4317 H   0  0  0  0  0  0  0  0  0  0  0  0
   -2.9308   -1.2796    1.0880 H   0  0  0  0  0  0  0  0  0  0  0  0
   -2.8605   -0.9888   -0.4091 H   0  0  0  0  0  0  0  0  0  0  0  0
   -2.5325    0.7327    1.8768 O   0  0  0  0  0  0  0  0  0  0  0  0
   -3.2346    1.2721    2.2435 H   0  0  0  0  0  0  0  0  0  0  0  0
   -2.4657    0.9690    0.9346 H   0  0  0  0  0  0  0  0  0  0  0  0
    4.9056    1.3259   -1.7149 N   0  0  0  0  0  0  0  0  0  0  0  0
    7.1735    1.5529   -0.8168 C   0  0  0  0  0  0  0  0  0  0  0  0
    8.0034    0.6734   -0.7199 O   0  0  0  0  0  0  0  0  0  0  0  0
    3.5872    2.2102   -3.5205 C   0  0  0  0  0  0  0  0  0  0  0  0
    4.4485    2.4449   -2.3023 C   0  0  0  0  0  0  0  0  0  0  0  0
    4.7252    3.5580   -1.8828 O   0  0  0  0  0  0  0  0  0  0  0  0
    2.8691    1.4135   -3.3432 H   0  0  0  0  0  0  0  0  0  0  0  0
    4.2215    1.9287   -4.3595 H   0  0  0  0  0  0  0  0  0  0  0  0
    3.0633    3.1277   -3.7727 H   0  0  0  0  0  0  0  0  0  0  0  0
    7.4282    2.8054   -1.2270 N   0  0  0  0  0  0  0  0  0  0  0  0
    8.7382    3.2333   -1.6520 C   0  0  0  0  0  0  0  0  0  0  0  0
    9.0565    4.1040   -1.0770 H   0  0  0  0  0  0  0  0  0  0  0  0
    8.7379    3.4890   -2.7136 H   0  0  0  0  0  0  0  0  0  0  0  0
    9.4298    2.4103   -1.4787 H   0  0  0  0  0  0  0  0  0  0  0  0
  1  2  1  0  0  0  0
  2  3  4  0  0  0  0
  3  4  4  0  0  0  0
  4  5  4  0  0  0  0
  5  6  4  0  0  0  0
  2  7  4  0  0  0  0
  6  7  4  0  0  0  0
  5  8  1  0  0  0  0
  8  9  1  0  0  0  0
 10 11  1  0  0  0  0
 11 12  2  0  0  0  0
 12 13  1  0  0  0  0
 13 14  1  0  0  0  0
 14 15  1  0  0  0  0
 10 16  2  0  0  0  0
  1 18  1  0  0  0  0
  1 19  1  0  0  0  0
  3 20  1  0  0  0  0
  4 21  1  0  0  0  0
  6 22  1  0  0  0  0
  7 23  1  0  0  0  0
  8 24  1  0  0  0  0
  8 25  1  0  0  0  0
  9 26  1  0  0  0  0
 10 29  1  0  0  0  0
 11 30  1  0  0  0  0
 12 31  1  0  0  0  0
 13 32  1  0  0  0  0
 13 33  1  0  0  0  0
 14 34  1  0  0  0  0
 14 35  1  0  0  0  0
 15 36  1  0  0  0  0
 15 37  1  0  0  0  0
 15 38  1  0  0  0  0
 17 39  1  0  0  0  0
 17 40  1  0  0  0  0
 41 42  1  0  0  0  0
 41 43  1  0  0  0  0
  9 44  1  0  0  0  0
 27 44  1  0  0  0  0
  9 45  1  0  0  0  0
 45 46  2  0  0  0  0
 44 48  4  0  0  0  0
 47 48  1  0  0  0  0
 48 49  2  0  0  0  0
 47 50  1  0  0  0  0
 47 51  1  0  0  0  0
 47 52  1  0  0  0  0
 28 53  1  0  0  0  0
 45 53  4  0  0  0  0
 53 54  1  0  0  0  0
 54 55  1  0  0  0  0
 54 56  1  0  0  0  0
 54 57  1  0  0  0  0
M  END
