 xtb: 6.7.1pre (5071a88)
          08202618203D

 57 54  0     0  0            999 V2000
   -0.2227   -0.3457    0.6522 N   0  0  0  0  0  0  0  0  0  0  0  0
    1.1554   -0.3043    0.6852 C   0  0  0  0  0  0  0  0  0  0  0  0
    1.8079    0.7187    1.3764 C   0  0  0  0  0  0  0  0  0  0  0  0
    3.1765    0.8575    1.2931 C   0  0  0  0  0  0  0  0  0  0  0  0
    3.9401   -0.0147    0.5247 C   0  0  0  0  0  0  0  0  0  0  0  0
    3.2922   -1.0503   -0.1370 C   0  0  0  0  0  0  0  0  0  0  0  0
    1.9212   -1.2013   -0.0584 C   0  0  0  0  0  0  0  0  0  0  0  0
    5.4158    0.2122    0.3615 C   0  0  0  0  0  0  0  0  0  0  0  0
    5.6693    1.4237   -0.5394 C   0  0  0  0  0  0  0  0  0  0  0  0
   -0.9828    0.8794   -1.2097 C   0  0  0  0  0  0  0  0  0  0  0  0
    0.2051    1.7209   -1.2038 C   0  0  0  0  0  0  0  0  0  0  0  0
    0.2386    2.9390   -0.6592 C   0  0  0  0  0  0  0  0  0  0  0  0
    1.4348    3.8176   -0.6353 C   0  0  0  0  0  0  0  0  0  0  0  0
    1.2552    5.0320   -1.5573 C   0  0  0  0  0  0  0  0  0  0  0  0
    2.4999    5.9093   -1.5511 C   0  0  0  0  0  0  0  0  0  0  0  0
   -2.0857    1.2017   -0.7830 O   0  0  0  0  0  0  0  0  0  0  0  0
   -2.9622   -1.2702    0.4621 O   0  0  0  0  0  0  0  0  0  0  0  0
   -0.6972    0.1726    1.3805 H   0  0  0  0  0  0  0  0  0  0  0  0
   -0.6690   -1.2299    0.4466 H   0  0  0  0  0  0  0  0  0  0  0  0
    1.2229    1.4049    1.9704 H   0  0  0  0  0  0  0  0  0  0  0  0
    3.6643    1.6574    1.8311 H   0  0  0  0  0  0  0  0  0  0  0  0
    3.8686   -1.7566   -0.7193 H   0  0  0  0  0  0  0  0  0  0  0  0
    1.4309   -2.0091   -0.5824 H   0  0  0  0  0  0  0  0  0  0  0  0
    5.9013   -0.6588   -0.0818 H   0  0  0  0  0  0  0  0  0  0  0  0
    5.8905    0.4013    1.3254 H   0  0  0  0  0  0  0  0  0  0  0  0
    5.3082    2.3433   -0.0625 H   0  0  0  0  0  0  0  0  0  0  0  0
    4.7103    0.3340   -2.0674 H   0  0  0  0  0  0  0  0  0  0  0  0
    6.6830    3.4148   -1.6012 H   0  0  0  0  0  0  0  0  0  0  0  0
   -0.8759   -0.0495   -1.7940 H   0  0  0  0  0  0  0  0  0  0  0  0
    1.0930    1.2953   -1.6478 H   0  0  0  0  0  0  0  0  0  0  0  0
   -0.6694    3.3431   -0.2293 H   0  0  0  0  0  0  0  0  0  0  0  0
    1.5962    4.1770    0.3842 H   0  0  0  0  0  0  0  0  0  0  0  0
    2.3187    3.2593   -0.9467 H   0  0  0  0  0  0  0  0  0  0  0  0
    1.0610    4.6784   -2.5721 H   0  0  0  0  0  0  0  0  0  0  0  0
    0.3869    5.6107   -1.2340 H   0  0  0  0  0  0  0  0  0  0  0  0
    2.3812    6.7423   -2.2399 H   0  0  0  0  0  0  0  0  0  0  0  0
    2.6799    6.3098   -0.5557 H   0  0  0  0  0  0  0  0  0  0  0  0
    3.3702    5.3308   -1.8514 H   0  0  0  0  0  0  0  0  0  0  0  0
   -3.0327   -0.8063    1.3026 H   0  0  0  0  0  0  0  0  0  0  0  0
   -2.9547   -0.5724   -0.2049 H   0  0  0  0  0  0  0  0  0  0  0  0
   -2.4214    1.2771    1.9303 O   0  0  0  0  0  0  0  0  0  0  0  0
   -2.4039    1.4313    0.9693 H   0  0  0  0  0  0  0  0  0  0  0  0
   -3.0306    1.9181    2.2994 H   0  0  0  0  0  0  0  0  0  0  0  0
    4.9326    1.2751   -1.7835 N   0  0  0  0  0  0  0  0  0  0  0  0
    7.1747    1.5930   -0.8422 C   0  0  0  0  0  0  0  0  0  0  0  0
    7.9947    0.7283   -0.6149 O   0  0  0  0  0  0  0  0  0  0  0  0
    3.6743    1.9507   -3.7162 C   0  0  0  0  0  0  0  0  0  0  0  0
    4.5105    2.3208   -2.5141 C   0  0  0  0  0  0  0  0  0  0  0  0
    4.7955    3.4729   -2.2257 O   0  0  0  0  0  0  0  0  0  0  0  0
    2.9136    1.2212   -3.4494 H   0  0  0  0  0  0  0  0  0  0  0  0
    4.3160    1.5215   -4.4835 H   0  0  0  0  0  0  0  0  0  0  0  0
    3.2018    2.8438   -4.1148 H   0  0  0  0  0  0  0  0  0  0  0  0
    7.4521    2.7898   -1.3826 N   0  0  0  0  0  0  0  0  0  0  0  0
    8.7793    3.1639   -1.8047 C   0  0  0  0  0  0  0  0  0  0  0  0
    9.0896    4.0840   -1.3072 H   0  0  0  0  0  0  0  0  0  0  0  0
    8.8142    3.3150   -2.8854 H   0  0  0  0  0  0  0  0  0  0  0  0
    9.4564    2.3565   -1.5299 H   0  0  0  0  0  0  0  0  0  0  0  0
  1  2  1  0  0  0  0
  2  3  4  0  0  0  0
  3  4  4  0  0  0  0
  4  5  4  0  0  0  0
  5  6  4  0  0  0  0
  2  7  4  0  0  0  0
  6  7  4  0  0  0  0
  5  8  1  0  0  0  0
  8  9  1  0  0  0  0
 10 11  1  0  0  0  0
 11 12  2  0  0  0  0
 12 13  1  0  0  0  0
 13 14  1  0  0  0  0
 14 15  1  0  0  0  0
 10 16  2  0  0  0  0
  1 18  1  0  0  0  0
  1 19  1  0  0  0  0
  3 20  1  0  0  0  0
  4 21  1  0  0  0  0
  6 22  1  0  0  0  0
  7 23  1  0  0  0  0
  8 24  1  0  0  0  0
  8 25  1  0  0  0  0
  9 26  1  0  0  0  0
 10 29  1  0  0  0  0
 11 30  1  0  0  0  0
 12 31  1  0  0  0  0
 13 32  1  0  0  0  0
 13 33  1  0  0  0  0
 14 34  1  0  0  0  0
 14 35  1  0  0  0  0
 15 36  1  0  0  0  0
 15 37  1  0  0  0  0
 15 38  1  0  0  0  0
 17 39  1  0  0  0  0
 17 40  1  0  0  0  0
 41 42  1  0  0  0  0
 41 43  1  0  0  0  0
  9 44  1  0  0  0  0
 27 44  1  0  0  0  0
  9 45  1  0  0  0  0
 45 46  2  0  0  0  0
 44 48  4  0  0  0  0
 47 48  1  0  0  0  0
 48 49  2  0  0  0  0
 47 50  1  0  0  0  0
 47 51  1  0  0  0  0
 47 52  1  0  0  0  0
 28 53  1  0  0  0  0
 45 53  4  0  0  0  0
 53 54  1  0  0  0  0
 54 55  1  0  0  0  0
 54 56  1  0  0  0  0
 54 57  1  0  0  0  0
M  END
