 xtb: 6.7.1pre (5071a88)
          08312613173D

 76 76  0     0  0            999 V2000
    0.4087    0.1643    1.1611 N   0  0  0  0  0  0  0  0  0  0  0  0
    1.7504   -0.0848    0.7844 C   0  0  0  0  0  0  0  0  0  0  0  0
    2.7884    0.5864    1.4254 C   0  0  0  0  0  0  0  0  0  0  0  0
    4.0999    0.3524    1.0679 C   0  0  0  0  0  0  0  0  0  0  0  0
    4.4196   -0.5567    0.0651 C   0  0  0  0  0  0  0  0  0  0  0  0
    3.3864   -1.2574   -0.5409 C   0  0  0  0  0  0  0  0  0  0  0  0
    2.0694   -1.0336   -0.1813 C   0  0  0  0  0  0  0  0  0  0  0  0
    5.8437   -0.7239   -0.3843 C   0  0  0  0  0  0  0  0  0  0  0  0
    6.3860    0.5920   -0.9486 C   0  0  0  0  0  0  0  0  0  0  0  0
   -0.2594    1.3191    0.6029 C   0  0  0  0  0  0  0  0  0  0  0  0
    0.5331    2.6085    0.7772 C   0  0  0  0  0  0  0  0  0  0  0  0
   -0.3264    3.8553    0.5117 C   0  0  0  0  0  0  0  0  0  0  0  0
    0.5643    5.0897    0.2897 C   0  0  0  0  0  0  0  0  0  0  0  0
    0.9894    5.2265   -1.1718 C   0  0  0  0  0  0  0  0  0  0  0  0
    2.0222    6.3311   -1.3578 C   0  0  0  0  0  0  0  0  0  0  0  0
   -0.5052    1.1560   -0.7973 O   0  0  0  0  0  0  0  0  0  0  0  0
   -2.3337    4.4815    3.5643 N   0  0  0  0  0  0  0  0  0  0  0  0
   -3.3265    4.0556    2.7327 C   0  0  0  0  0  0  0  0  0  0  0  0
   -2.7303    3.7620    1.4829 C   0  0  0  0  0  0  0  0  0  0  0  0
   -1.3310    4.0412    1.6100 C   0  0  0  0  0  0  0  0  0  0  0  0
   -4.6864    3.8944    2.9581 C   0  0  0  0  0  0  0  0  0  0  0  0
   -3.5348    3.2877    0.4454 C   0  0  0  0  0  0  0  0  0  0  0  0
   -1.1317    4.4711    2.8954 C   0  0  0  0  0  0  0  0  0  0  0  0
   -5.4552    3.4287    1.9130 C   0  0  0  0  0  0  0  0  0  0  0  0
   -4.8836    3.1285    0.6741 C   0  0  0  0  0  0  0  0  0  0  0  0
    0.0940    4.9033    3.6213 C   0  0  0  0  0  0  0  0  0  0  0  0
   -1.7405    2.7648   -2.7264 O   0  0  0  0  0  0  0  0  0  0  0  0
   -0.1556   -0.6642    0.9914 H   0  0  0  0  0  0  0  0  0  0  0  0
   -1.1061    0.4126   -0.9266 H   0  0  0  0  0  0  0  0  0  0  0  0
    2.5622    1.2812    2.2171 H   0  0  0  0  0  0  0  0  0  0  0  0
    4.8899    0.8828    1.5789 H   0  0  0  0  0  0  0  0  0  0  0  0
    3.6112   -1.9875   -1.3063 H   0  0  0  0  0  0  0  0  0  0  0  0
    1.2801   -1.5937   -0.6651 H   0  0  0  0  0  0  0  0  0  0  0  0
    5.9206   -1.4922   -1.1558 H   0  0  0  0  0  0  0  0  0  0  0  0
    6.4807   -1.0279    0.4485 H   0  0  0  0  0  0  0  0  0  0  0  0
    6.5570    1.3210   -0.1472 H   0  0  0  0  0  0  0  0  0  0  0  0
    4.7492    0.5592   -2.2800 H   0  0  0  0  0  0  0  0  0  0  0  0
    7.8673    2.4086   -1.7108 H   0  0  0  0  0  0  0  0  0  0  0  0
   -1.2233    1.4076    1.1268 H   0  0  0  0  0  0  0  0  0  0  0  0
    1.3807    2.5852    0.0912 H   0  0  0  0  0  0  0  0  0  0  0  0
   -0.8882    3.6945   -0.4100 H   0  0  0  0  0  0  0  0  0  0  0  0
    0.0146    5.9862    0.5801 H   0  0  0  0  0  0  0  0  0  0  0  0
    1.4557    5.0261    0.9169 H   0  0  0  0  0  0  0  0  0  0  0  0
    1.4104    4.2801   -1.5197 H   0  0  0  0  0  0  0  0  0  0  0  0
    0.1083    5.4501   -1.7753 H   0  0  0  0  0  0  0  0  0  0  0  0
    2.2758    6.4454   -2.4093 H   0  0  0  0  0  0  0  0  0  0  0  0
    1.6301    7.2795   -0.9984 H   0  0  0  0  0  0  0  0  0  0  0  0
    2.9336    6.1054   -0.8066 H   0  0  0  0  0  0  0  0  0  0  0  0
   -2.4535    4.7727    4.5195 H   0  0  0  0  0  0  0  0  0  0  0  0
   -2.7796    5.4943   -1.3090 H   0  0  0  0  0  0  0  0  0  0  0  0
   -5.1231    4.1259    3.9188 H   0  0  0  0  0  0  0  0  0  0  0  0
   -3.1153    3.0436   -0.5188 H   0  0  0  0  0  0  0  0  0  0  0  0
   -6.5175    3.2915    2.0513 H   0  0  0  0  0  0  0  0  0  0  0  0
   -5.5189    2.7640   -0.1199 H   0  0  0  0  0  0  0  0  0  0  0  0
    0.9854    4.6684    3.0514 H   0  0  0  0  0  0  0  0  0  0  0  0
    0.0745    5.9799    3.7975 H   0  0  0  0  0  0  0  0  0  0  0  0
    0.1546    4.4043    4.5890 H   0  0  0  0  0  0  0  0  0  0  0  0
    0.9035    2.6401    1.7995 H   0  0  0  0  0  0  0  0  0  0  0  0
   -1.1809    2.8554   -3.4997 H   0  0  0  0  0  0  0  0  0  0  0  0
   -2.2790    5.4756   -2.1270 O   0  0  0  0  0  0  0  0  0  0  0  0
   -1.2148    2.3030   -2.0525 H   0  0  0  0  0  0  0  0  0  0  0  0
   -2.2208    4.5424   -2.3852 H   0  0  0  0  0  0  0  0  0  0  0  0
    5.4114    1.1846   -1.8492 N   0  0  0  0  0  0  0  0  0  0  0  0
    7.7248    0.3811   -1.6888 C   0  0  0  0  0  0  0  0  0  0  0  0
    8.1486   -0.7148   -1.9923 O   0  0  0  0  0  0  0  0  0  0  0  0
    4.0933    2.9360   -2.8305 C   0  0  0  0  0  0  0  0  0  0  0  0
    5.2881    2.5167   -2.0079 C   0  0  0  0  0  0  0  0  0  0  0  0
    6.0897    3.3009   -1.5294 O   0  0  0  0  0  0  0  0  0  0  0  0
    3.1894    2.4716   -2.4423 H   0  0  0  0  0  0  0  0  0  0  0  0
    4.2307    2.6244   -3.8640 H   0  0  0  0  0  0  0  0  0  0  0  0
    3.9929    4.0168   -2.7960 H   0  0  0  0  0  0  0  0  0  0  0  0
    8.3414    1.5434   -1.9507 N   0  0  0  0  0  0  0  0  0  0  0  0
    9.5876    1.6202   -2.6716 C   0  0  0  0  0  0  0  0  0  0  0  0
   10.3363    2.1469   -2.0777 H   0  0  0  0  0  0  0  0  0  0  0  0
    9.4553    2.1428   -3.6210 H   0  0  0  0  0  0  0  0  0  0  0  0
    9.9257    0.6028   -2.8625 H   0  0  0  0  0  0  0  0  0  0  0  0
  1  2  1  0  0  0  0
  2  3  4  0  0  0  0
  3  4  4  0  0  0  0
  4  5  4  0  0  0  0
  5  6  4  0  0  0  0
  2  7  4  0  0  0  0
  6  7  4  0  0  0  0
  5  8  1  0  0  0  0
  8  9  1  0  0  0  0
  1 10  1  0  0  0  0
 10 11  1  0  0  0  0
 11 12  1  0  0  0  0
 12 13  1  0  0  0  0
 13 14  1  0  0  0  0
 14 15  1  0  0  0  0
 10 16  1  0  0  0  0
 17 18  1  0  0  0  0
 18 19  4  0  0  0  0
 12 20  1  0  0  0  0
 19 20  4  0  0  0  0
 18 21  4  0  0  0  0
 19 22  4  0  0  0  0
 17 23  1  0  0  0  0
 20 23  2  0  0  0  0
 21 24  4  0  0  0  0
 22 25  2  0  0  0  0
 24 25  4  0  0  0  0
 23 26  1  0  0  0  0
  1 28  1  0  0  0  0
 16 29  1  0  0  0  0
  3 30  1  0  0  0  0
  4 31  1  0  0  0  0
  6 32  1  0  0  0  0
  7 33  1  0  0  0  0
  8 34  1  0  0  0  0
  8 35  1  0  0  0  0
  9 36  1  0  0  0  0
 10 39  1  0  0  0  0
 11 40  1  0  0  0  0
 12 41  1  0  0  0  0
 13 42  1  0  0  0  0
 13 43  1  0  0  0  0
 14 44  1  0  0  0  0
 14 45  1  0  0  0  0
 15 46  1  0  0  0  0
 15 47  1  0  0  0  0
 15 48  1  0  0  0  0
 17 49  1  0  0  0  0
 21 51  1  0  0  0  0
 22 52  1  0  0  0  0
 24 53  1  0  0  0  0
 25 54  1  0  0  0  0
 26 55  1  0  0  0  0
 26 56  1  0  0  0  0
 26 57  1  0  0  0  0
 11 58  1  0  0  0  0
 27 59  1  0  0  0  0
 50 60  1  0  0  0  0
 27 61  1  0  0  0  0
 60 62  1  0  0  0  0
  9 63  1  0  0  0  0
 37 63  1  0  0  0  0
  9 64  1  0  0  0  0
 64 65  2  0  0  0  0
 63 67  4  0  0  0  0
 66 67  1  0  0  0  0
 67 68  2  0  0  0  0
 66 69  1  0  0  0  0
 66 70  1  0  0  0  0
 66 71  1  0  0  0  0
 38 72  1  0  0  0  0
 64 72  4  0  0  0  0
 72 73  1  0  0  0  0
 73 74  1  0  0  0  0
 73 75  1  0  0  0  0
 73 76  1  0  0  0  0
M  END
