 xtb: 6.7.1pre (5071a88)
          08202604043D

 57 54  0     0  0            999 V2000
   -0.0828    0.3650    0.2871 N   0  0  0  0  0  0  0  0  0  0  0  0
    1.2620    0.0117    0.2645 C   0  0  0  0  0  0  0  0  0  0  0  0
    2.1622    0.4793    1.2218 C   0  0  0  0  0  0  0  0  0  0  0  0
    3.5023    0.1701    1.1213 C   0  0  0  0  0  0  0  0  0  0  0  0
    3.9786   -0.5963    0.0638 C   0  0  0  0  0  0  0  0  0  0  0  0
    3.0622   -1.1338   -0.8322 C   0  0  0  0  0  0  0  0  0  0  0  0
    1.7141   -0.8564   -0.7260 C   0  0  0  0  0  0  0  0  0  0  0  0
    5.4542   -0.6927   -0.1899 C   0  0  0  0  0  0  0  0  0  0  0  0
    5.9356    0.6638   -0.7200 C   0  0  0  0  0  0  0  0  0  0  0  0
   -0.4591    1.5784    0.1860 C   0  0  0  0  0  0  0  0  0  0  0  0
    0.3803    2.7267   -0.0446 C   0  0  0  0  0  0  0  0  0  0  0  0
   -0.0902    3.9629   -0.2261 C   0  0  0  0  0  0  0  0  0  0  0  0
    0.7780    5.1241   -0.5652 C   0  0  0  0  0  0  0  0  0  0  0  0
    0.7041    5.4295   -2.0688 C   0  0  0  0  0  0  0  0  0  0  0  0
    1.6199    6.5866   -2.4449 C   0  0  0  0  0  0  0  0  0  0  0  0
    0.6624    1.5128   -2.9068 O   0  0  0  0  0  0  0  0  0  0  0  0
   -1.1992   -0.5027   -3.2209 O   0  0  0  0  0  0  0  0  0  0  0  0
   -1.1335   -0.9377   -0.2796 H   0  0  0  0  0  0  0  0  0  0  0  0
    0.0557    0.7536   -2.9878 H   0  0  0  0  0  0  0  0  0  0  0  0
    1.8000    1.0993    2.0298 H   0  0  0  0  0  0  0  0  0  0  0  0
    4.1948    0.5612    1.8528 H   0  0  0  0  0  0  0  0  0  0  0  0
    3.4102   -1.7690   -1.6352 H   0  0  0  0  0  0  0  0  0  0  0  0
    1.0141   -1.2521   -1.4436 H   0  0  0  0  0  0  0  0  0  0  0  0
    5.6835   -1.4623   -0.9283 H   0  0  0  0  0  0  0  0  0  0  0  0
    6.0077   -0.9230    0.7210 H   0  0  0  0  0  0  0  0  0  0  0  0
    5.8771    1.4233    0.0705 H   0  0  0  0  0  0  0  0  0  0  0  0
    4.5558    0.4138   -2.3010 H   0  0  0  0  0  0  0  0  0  0  0  0
    7.2730    2.6324   -1.3329 H   0  0  0  0  0  0  0  0  0  0  0  0
   -1.5319    1.7490    0.2257 H   0  0  0  0  0  0  0  0  0  0  0  0
    1.4430    2.5421   -0.1189 H   0  0  0  0  0  0  0  0  0  0  0  0
   -1.1558    4.1520   -0.1763 H   0  0  0  0  0  0  0  0  0  0  0  0
    0.4575    6.0074   -0.0078 H   0  0  0  0  0  0  0  0  0  0  0  0
    1.8145    4.9022   -0.3053 H   0  0  0  0  0  0  0  0  0  0  0  0
    1.0008    4.5348   -2.6193 H   0  0  0  0  0  0  0  0  0  0  0  0
   -0.3260    5.6693   -2.3423 H   0  0  0  0  0  0  0  0  0  0  0  0
    1.5697    6.7792   -3.5140 H   0  0  0  0  0  0  0  0  0  0  0  0
    1.3295    7.4933   -1.9188 H   0  0  0  0  0  0  0  0  0  0  0  0
    2.6501    6.3552   -2.1843 H   0  0  0  0  0  0  0  0  0  0  0  0
   -1.4565   -0.8935   -2.3601 H   0  0  0  0  0  0  0  0  0  0  0  0
   -0.9723   -1.2398   -3.7901 H   0  0  0  0  0  0  0  0  0  0  0  0
   -1.7481   -1.5293   -0.7699 O   0  0  0  0  0  0  0  0  0  0  0  0
    0.1828    2.2526   -3.2837 H   0  0  0  0  0  0  0  0  0  0  0  0
   -2.6098   -1.4270   -0.3634 H   0  0  0  0  0  0  0  0  0  0  0  0
    5.0734    1.1176   -1.7987 N   0  0  0  0  0  0  0  0  0  0  0  0
    7.3958    0.6071   -1.2132 C   0  0  0  0  0  0  0  0  0  0  0  0
    8.0080   -0.4292   -1.3683 O   0  0  0  0  0  0  0  0  0  0  0  0
    3.7407    2.6710   -3.0518 C   0  0  0  0  0  0  0  0  0  0  0  0
    4.7984    2.4198   -2.0097 C   0  0  0  0  0  0  0  0  0  0  0  0
    5.3874    3.3073   -1.4113 O   0  0  0  0  0  0  0  0  0  0  0  0
    4.0594    2.2590   -4.0070 H   0  0  0  0  0  0  0  0  0  0  0  0
    3.5875    3.7410   -3.1589 H   0  0  0  0  0  0  0  0  0  0  0  0
    2.8031    2.1933   -2.7699 H   0  0  0  0  0  0  0  0  0  0  0  0
    7.8886    1.8333   -1.4485 N   0  0  0  0  0  0  0  0  0  0  0  0
    9.2146    2.0553   -1.9682 C   0  0  0  0  0  0  0  0  0  0  0  0
    9.7835    2.6997   -1.2957 H   0  0  0  0  0  0  0  0  0  0  0  0
    9.1717    2.5213   -2.9548 H   0  0  0  0  0  0  0  0  0  0  0  0
    9.7074    1.0872   -2.0463 H   0  0  0  0  0  0  0  0  0  0  0  0
  1  2  1  0  0  0  0
  2  3  4  0  0  0  0
  3  4  4  0  0  0  0
  4  5  4  0  0  0  0
  5  6  4  0  0  0  0
  2  7  4  0  0  0  0
  6  7  4  0  0  0  0
  5  8  1  0  0  0  0
  8  9  1  0  0  0  0
  1 10  2  0  0  0  0
 10 11  1  0  0  0  0
 11 12  2  0  0  0  0
 12 13  1  0  0  0  0
 13 14  1  0  0  0  0
 14 15  1  0  0  0  0
 16 19  1  0  0  0  0
  3 20  1  0  0  0  0
  4 21  1  0  0  0  0
  6 22  1  0  0  0  0
  7 23  1  0  0  0  0
  8 24  1  0  0  0  0
  8 25  1  0  0  0  0
  9 26  1  0  0  0  0
 10 29  1  0  0  0  0
 11 30  1  0  0  0  0
 12 31  1  0  0  0  0
 13 32  1  0  0  0  0
 13 33  1  0  0  0  0
 14 34  1  0  0  0  0
 14 35  1  0  0  0  0
 15 36  1  0  0  0  0
 15 37  1  0  0  0  0
 15 38  1  0  0  0  0
 17 39  1  0  0  0  0
 17 40  1  0  0  0  0
 18 41  1  0  0  0  0
 16 42  1  0  0  0  0
 41 43  1  0  0  0  0
  9 44  1  0  0  0  0
 27 44  1  0  0  0  0
  9 45  1  0  0  0  0
 45 46  2  0  0  0  0
 44 48  4  0  0  0  0
 47 48  1  0  0  0  0
 48 49  2  0  0  0  0
 47 50  1  0  0  0  0
 47 51  1  0  0  0  0
 47 52  1  0  0  0  0
 28 53  1  0  0  0  0
 45 53  4  0  0  0  0
 53 54  1  0  0  0  0
 54 55  1  0  0  0  0
 54 56  1  0  0  0  0
 54 57  1  0  0  0  0
M  END
