 xtb: 6.7.1pre (5071a88)
          08202601063D

 57 54  0     0  0            999 V2000
   -0.2696    0.2230    0.2654 N   0  0  0  0  0  0  0  0  0  0  0  0
    1.0973    0.0110    0.2314 C   0  0  0  0  0  0  0  0  0  0  0  0
    1.9811    0.6953    1.0702 C   0  0  0  0  0  0  0  0  0  0  0  0
    3.3327    0.4321    1.0192 C   0  0  0  0  0  0  0  0  0  0  0  0
    3.8501   -0.5115    0.1381 C   0  0  0  0  0  0  0  0  0  0  0  0
    2.9656   -1.2284   -0.6571 C   0  0  0  0  0  0  0  0  0  0  0  0
    1.6048   -0.9881   -0.6055 C   0  0  0  0  0  0  0  0  0  0  0  0
    5.3351   -0.6768    0.0024 C   0  0  0  0  0  0  0  0  0  0  0  0
    5.8955    0.4691   -0.8434 C   0  0  0  0  0  0  0  0  0  0  0  0
   -0.8107    1.3779    0.1993 C   0  0  0  0  0  0  0  0  0  0  0  0
   -0.1706    2.6313   -0.0980 C   0  0  0  0  0  0  0  0  0  0  0  0
   -0.8286    3.7931   -0.1595 C   0  0  0  0  0  0  0  0  0  0  0  0
   -0.1796    5.0783   -0.5300 C   0  0  0  0  0  0  0  0  0  0  0  0
   -0.9211    5.7732   -1.6772 C   0  0  0  0  0  0  0  0  0  0  0  0
   -0.2512    7.0878   -2.0537 C   0  0  0  0  0  0  0  0  0  0  0  0
    2.6855    3.1955   -1.5905 O   0  0  0  0  0  0  0  0  0  0  0  0
    1.5136    0.9706   -3.0219 O   0  0  0  0  0  0  0  0  0  0  0  0
   -1.2046   -0.9470   -0.8892 H   0  0  0  0  0  0  0  0  0  0  0  0
    2.3138    2.5508   -2.2080 H   0  0  0  0  0  0  0  0  0  0  0  0
    1.5917    1.4254    1.7641 H   0  0  0  0  0  0  0  0  0  0  0  0
    4.0038    0.9794    1.6652 H   0  0  0  0  0  0  0  0  0  0  0  0
    3.3398   -1.9932   -1.3237 H   0  0  0  0  0  0  0  0  0  0  0  0
    0.9261   -1.5583   -1.2229 H   0  0  0  0  0  0  0  0  0  0  0  0
    5.5904   -1.6272   -0.4689 H   0  0  0  0  0  0  0  0  0  0  0  0
    5.8232   -0.6464    0.9773 H   0  0  0  0  0  0  0  0  0  0  0  0
    5.5767    1.4334   -0.4280 H   0  0  0  0  0  0  0  0  0  0  0  0
    5.1559   -0.5121   -2.5604 H   0  0  0  0  0  0  0  0  0  0  0  0
    7.2979    2.2993   -1.7255 H   0  0  0  0  0  0  0  0  0  0  0  0
   -1.8926    1.3906    0.3111 H   0  0  0  0  0  0  0  0  0  0  0  0
    0.8881    2.6134   -0.3167 H   0  0  0  0  0  0  0  0  0  0  0  0
   -1.8898    3.8331    0.0602 H   0  0  0  0  0  0  0  0  0  0  0  0
   -0.1833    5.7439    0.3393 H   0  0  0  0  0  0  0  0  0  0  0  0
    0.8568    4.8918   -0.8156 H   0  0  0  0  0  0  0  0  0  0  0  0
   -0.9332    5.1098   -2.5444 H   0  0  0  0  0  0  0  0  0  0  0  0
   -1.9571    5.9599   -1.3840 H   0  0  0  0  0  0  0  0  0  0  0  0
   -0.7794    7.5637   -2.8766 H   0  0  0  0  0  0  0  0  0  0  0  0
   -0.2460    7.7719   -1.2077 H   0  0  0  0  0  0  0  0  0  0  0  0
    0.7774    6.9131   -2.3592 H   0  0  0  0  0  0  0  0  0  0  0  0
    0.5882    0.9930   -3.2764 H   0  0  0  0  0  0  0  0  0  0  0  0
    1.5743    0.3501   -2.2822 H   0  0  0  0  0  0  0  0  0  0  0  0
   -1.5254   -1.4407   -1.6640 O   0  0  0  0  0  0  0  0  0  0  0  0
    3.6124    3.2924   -1.8356 H   0  0  0  0  0  0  0  0  0  0  0  0
   -2.2111   -2.0309   -1.3449 H   0  0  0  0  0  0  0  0  0  0  0  0
    5.3720    0.4017   -2.1960 N   0  0  0  0  0  0  0  0  0  0  0  0
    7.4373    0.4487   -0.8893 C   0  0  0  0  0  0  0  0  0  0  0  0
    8.1014   -0.4929   -0.5098 O   0  0  0  0  0  0  0  0  0  0  0  0
    4.5123    1.2351   -4.2818 C   0  0  0  0  0  0  0  0  0  0  0  0
    5.1512    1.4957   -2.9449 C   0  0  0  0  0  0  0  0  0  0  0  0
    5.4332    2.6168   -2.5411 O   0  0  0  0  0  0  0  0  0  0  0  0
    4.9386    0.3564   -4.7577 H   0  0  0  0  0  0  0  0  0  0  0  0
    4.6450    2.1027   -4.9216 H   0  0  0  0  0  0  0  0  0  0  0  0
    3.4452    1.0739   -4.1317 H   0  0  0  0  0  0  0  0  0  0  0  0
    7.9389    1.5823   -1.4057 N   0  0  0  0  0  0  0  0  0  0  0  0
    9.3520    1.7887   -1.6053 C   0  0  0  0  0  0  0  0  0  0  0  0
    9.6902    2.6690   -1.0564 H   0  0  0  0  0  0  0  0  0  0  0  0
    9.5772    1.9219   -2.6651 H   0  0  0  0  0  0  0  0  0  0  0  0
    9.8716    0.9074   -1.2322 H   0  0  0  0  0  0  0  0  0  0  0  0
  1  2  1  0  0  0  0
  2  3  4  0  0  0  0
  3  4  4  0  0  0  0
  4  5  4  0  0  0  0
  5  6  4  0  0  0  0
  2  7  4  0  0  0  0
  6  7  4  0  0  0  0
  5  8  1  0  0  0  0
  8  9  1  0  0  0  0
  1 10  2  0  0  0  0
 10 11  1  0  0  0  0
 11 12  2  0  0  0  0
 12 13  1  0  0  0  0
 13 14  1  0  0  0  0
 14 15  1  0  0  0  0
 16 19  1  0  0  0  0
  3 20  1  0  0  0  0
  4 21  1  0  0  0  0
  6 22  1  0  0  0  0
  7 23  1  0  0  0  0
  8 24  1  0  0  0  0
  8 25  1  0  0  0  0
  9 26  1  0  0  0  0
 10 29  1  0  0  0  0
 11 30  1  0  0  0  0
 12 31  1  0  0  0  0
 13 32  1  0  0  0  0
 13 33  1  0  0  0  0
 14 34  1  0  0  0  0
 14 35  1  0  0  0  0
 15 36  1  0  0  0  0
 15 37  1  0  0  0  0
 15 38  1  0  0  0  0
 17 39  1  0  0  0  0
 17 40  1  0  0  0  0
 18 41  1  0  0  0  0
 16 42  1  0  0  0  0
 41 43  1  0  0  0  0
  9 44  1  0  0  0  0
 27 44  1  0  0  0  0
  9 45  1  0  0  0  0
 45 46  2  0  0  0  0
 44 48  4  0  0  0  0
 47 48  1  0  0  0  0
 48 49  2  0  0  0  0
 47 50  1  0  0  0  0
 47 51  1  0  0  0  0
 47 52  1  0  0  0  0
 28 53  1  0  0  0  0
 45 53  4  0  0  0  0
 53 54  1  0  0  0  0
 54 55  1  0  0  0  0
 54 56  1  0  0  0  0
 54 57  1  0  0  0  0
M  END
