 xtb: 6.7.1pre (5071a88)
          08202604053D

 76 76  0     0  0            999 V2000
   -0.2125    0.5273   -0.1607 N   0  0  0  0  0  0  0  0  0  0  0  0
    1.1428    0.1960   -0.1485 C   0  0  0  0  0  0  0  0  0  0  0  0
    1.9133    0.3208    1.0065 C   0  0  0  0  0  0  0  0  0  0  0  0
    3.2566    0.0128    0.9811 C   0  0  0  0  0  0  0  0  0  0  0  0
    3.8617   -0.4291   -0.1882 C   0  0  0  0  0  0  0  0  0  0  0  0
    3.0689   -0.6339   -1.3106 C   0  0  0  0  0  0  0  0  0  0  0  0
    1.7196   -0.3445   -1.2948 C   0  0  0  0  0  0  0  0  0  0  0  0
    5.3547   -0.5143   -0.2814 C   0  0  0  0  0  0  0  0  0  0  0  0
    5.8734    0.9052   -0.5769 C   0  0  0  0  0  0  0  0  0  0  0  0
   -0.6465    1.6753    0.1682 C   0  0  0  0  0  0  0  0  0  0  0  0
    0.1199    2.8809    0.5361 C   0  0  0  0  0  0  0  0  0  0  0  0
   -0.5565    4.2144    0.1295 C   0  0  0  0  0  0  0  0  0  0  0  0
    0.3341    5.1718   -0.6459 C   0  0  0  0  0  0  0  0  0  0  0  0
    0.4598    4.7766   -2.1150 C   0  0  0  0  0  0  0  0  0  0  0  0
    1.3697    5.7374   -2.8699 C   0  0  0  0  0  0  0  0  0  0  0  0
   -1.4668   -0.0494   -2.6055 O   0  0  0  0  0  0  0  0  0  0  0  0
   -0.9065    2.5641    2.8788 N   0  0  0  0  0  0  0  0  0  0  0  0
   -2.1763    3.0817    2.7825 C   0  0  0  0  0  0  0  0  0  0  0  0
   -2.1696    4.3125    2.1088 C   0  0  0  0  0  0  0  0  0  0  0  0
   -0.7811    4.5770    1.6117 C   0  0  0  0  0  0  0  0  0  0  0  0
   -3.3539    2.5675    3.2982 C   0  0  0  0  0  0  0  0  0  0  0  0
   -3.3266    5.0381    1.9595 C   0  0  0  0  0  0  0  0  0  0  0  0
    0.0023    3.3172    2.0510 C   0  0  0  0  0  0  0  0  0  0  0  0
   -4.5173    3.3067    3.1378 C   0  0  0  0  0  0  0  0  0  0  0  0
   -4.5107    4.5261    2.4827 C   0  0  0  0  0  0  0  0  0  0  0  0
    1.3380    3.5336    2.7364 C   0  0  0  0  0  0  0  0  0  0  0  0
   -0.8883   -0.4718    2.6516 O   0  0  0  0  0  0  0  0  0  0  0  0
   -1.0798   -0.0264   -1.7099 H   0  0  0  0  0  0  0  0  0  0  0  0
   -0.1973    1.0358   -3.3914 H   0  0  0  0  0  0  0  0  0  0  0  0
    1.4460    0.6619    1.9172 H   0  0  0  0  0  0  0  0  0  0  0  0
    3.8515    0.1472    1.8730 H   0  0  0  0  0  0  0  0  0  0  0  0
    3.5147   -1.0136   -2.2193 H   0  0  0  0  0  0  0  0  0  0  0  0
    1.1253   -0.4794   -2.1835 H   0  0  0  0  0  0  0  0  0  0  0  0
    5.6702   -1.1848   -1.0824 H   0  0  0  0  0  0  0  0  0  0  0  0
    5.8031   -0.8591    0.6500 H   0  0  0  0  0  0  0  0  0  0  0  0
    5.5698    1.5777    0.2359 H   0  0  0  0  0  0  0  0  0  0  0  0
    5.3944    0.8962   -2.6168 H   0  0  0  0  0  0  0  0  0  0  0  0
    7.2122    2.9202   -1.1127 H   0  0  0  0  0  0  0  0  0  0  0  0
   -1.7301    1.7820    0.1617 H   0  0  0  0  0  0  0  0  0  0  0  0
    1.1589    2.7882    0.2131 H   0  0  0  0  0  0  0  0  0  0  0  0
   -1.4960    4.0709   -0.4127 H   0  0  0  0  0  0  0  0  0  0  0  0
   -0.0898    6.1779   -0.5774 H   0  0  0  0  0  0  0  0  0  0  0  0
    1.3273    5.1951   -0.1934 H   0  0  0  0  0  0  0  0  0  0  0  0
    0.8560    3.7629   -2.1862 H   0  0  0  0  0  0  0  0  0  0  0  0
   -0.5315    4.7794   -2.5755 H   0  0  0  0  0  0  0  0  0  0  0  0
    1.4703    5.4356   -3.9101 H   0  0  0  0  0  0  0  0  0  0  0  0
    0.9660    6.7479   -2.8437 H   0  0  0  0  0  0  0  0  0  0  0  0
    2.3578    5.7556   -2.4149 H   0  0  0  0  0  0  0  0  0  0  0  0
   -0.7743    1.5745    3.0262 H   0  0  0  0  0  0  0  0  0  0  0  0
   -0.3829    5.5438    1.9192 H   0  0  0  0  0  0  0  0  0  0  0  0
   -3.3608    1.6156    3.8067 H   0  0  0  0  0  0  0  0  0  0  0  0
   -3.3196    5.9845    1.4380 H   0  0  0  0  0  0  0  0  0  0  0  0
   -5.4462    2.9201    3.5323 H   0  0  0  0  0  0  0  0  0  0  0  0
   -5.4296    5.0821    2.3715 H   0  0  0  0  0  0  0  0  0  0  0  0
    2.0037    4.1099    2.1000 H   0  0  0  0  0  0  0  0  0  0  0  0
    1.1795    4.0709    3.6692 H   0  0  0  0  0  0  0  0  0  0  0  0
    1.8157    2.5839    2.9629 H   0  0  0  0  0  0  0  0  0  0  0  0
   -0.8108   -0.5183    1.6922 H   0  0  0  0  0  0  0  0  0  0  0  0
   -0.8539   -1.3706    2.9834 H   0  0  0  0  0  0  0  0  0  0  0  0
    0.4791    1.6592   -3.7038 O   0  0  0  0  0  0  0  0  0  0  0  0
   -2.3999    0.1477   -2.5080 H   0  0  0  0  0  0  0  0  0  0  0  0
    0.1060    2.0973   -4.4702 H   0  0  0  0  0  0  0  0  0  0  0  0
    5.2706    1.4438   -1.7793 N   0  0  0  0  0  0  0  0  0  0  0  0
    7.4018    0.9349   -0.7056 C   0  0  0  0  0  0  0  0  0  0  0  0
    8.1060   -0.0392   -0.5528 O   0  0  0  0  0  0  0  0  0  0  0  0
    3.6029    2.6032   -3.0747 C   0  0  0  0  0  0  0  0  0  0  0  0
    4.2591    2.3538   -1.7428 C   0  0  0  0  0  0  0  0  0  0  0  0
    3.9570    2.9409   -0.7233 O   0  0  0  0  0  0  0  0  0  0  0  0
    4.2159    2.2560   -3.9015 H   0  0  0  0  0  0  0  0  0  0  0  0
    3.4032    3.6652   -3.1846 H   0  0  0  0  0  0  0  0  0  0  0  0
    2.6433    2.0860   -3.1008 H   0  0  0  0  0  0  0  0  0  0  0  0
    7.8683    2.1608   -1.0164 N   0  0  0  0  0  0  0  0  0  0  0  0
    9.2699    2.4437   -1.2002 C   0  0  0  0  0  0  0  0  0  0  0  0
    9.6139    3.1836   -0.4754 H   0  0  0  0  0  0  0  0  0  0  0  0
    9.4606    2.8156   -2.2087 H   0  0  0  0  0  0  0  0  0  0  0  0
    9.8120    1.5116   -1.0495 H   0  0  0  0  0  0  0  0  0  0  0  0
  1  2  1  0  0  0  0
  2  3  4  0  0  0  0
  3  4  4  0  0  0  0
  4  5  4  0  0  0  0
  5  6  4  0  0  0  0
  2  7  4  0  0  0  0
  6  7  4  0  0  0  0
  5  8  1  0  0  0  0
  8  9  1  0  0  0  0
  1 10  2  0  0  0  0
 10 11  1  0  0  0  0
 11 12  1  0  0  0  0
 12 13  1  0  0  0  0
 13 14  1  0  0  0  0
 14 15  1  0  0  0  0
 17 18  1  0  0  0  0
 18 19  4  0  0  0  0
 12 20  1  0  0  0  0
 19 20  1  0  0  0  0
 18 21  4  0  0  0  0
 19 22  4  0  0  0  0
 11 23  1  0  0  0  0
 17 23  1  0  0  0  0
 20 23  1  0  0  0  0
 21 24  4  0  0  0  0
 22 25  4  0  0  0  0
 24 25  4  0  0  0  0
 23 26  1  0  0  0  0
 16 28  1  0  0  0  0
  3 30  1  0  0  0  0
  4 31  1  0  0  0  0
  6 32  1  0  0  0  0
  7 33  1  0  0  0  0
  8 34  1  0  0  0  0
  8 35  1  0  0  0  0
  9 36  1  0  0  0  0
 10 39  1  0  0  0  0
 11 40  1  0  0  0  0
 12 41  1  0  0  0  0
 13 42  1  0  0  0  0
 13 43  1  0  0  0  0
 14 44  1  0  0  0  0
 14 45  1  0  0  0  0
 15 46  1  0  0  0  0
 15 47  1  0  0  0  0
 15 48  1  0  0  0  0
 17 49  1  0  0  0  0
 20 50  1  0  0  0  0
 21 51  1  0  0  0  0
 22 52  1  0  0  0  0
 24 53  1  0  0  0  0
 25 54  1  0  0  0  0
 26 55  1  0  0  0  0
 26 56  1  0  0  0  0
 26 57  1  0  0  0  0
 27 58  1  0  0  0  0
 27 59  1  0  0  0  0
 29 60  1  0  0  0  0
 16 61  1  0  0  0  0
 60 62  1  0  0  0  0
  9 63  1  0  0  0  0
 37 63  1  0  0  0  0
  9 64  1  0  0  0  0
 64 65  2  0  0  0  0
 63 67  4  0  0  0  0
 66 67  1  0  0  0  0
 67 68  2  0  0  0  0
 66 69  1  0  0  0  0
 66 70  1  0  0  0  0
 66 71  1  0  0  0  0
 38 72  1  0  0  0  0
 64 72  4  0  0  0  0
 72 73  1  0  0  0  0
 73 74  1  0  0  0  0
 73 75  1  0  0  0  0
 73 76  1  0  0  0  0
M  END
