 xtb: 6.7.1pre (5071a88)
          08202601073D

 76 76  0     0  0            999 V2000
   -0.2171    0.5294   -0.1726 N   0  0  0  0  0  0  0  0  0  0  0  0
    1.1376    0.1955   -0.1593 C   0  0  0  0  0  0  0  0  0  0  0  0
    1.9054    0.3136    0.9981 C   0  0  0  0  0  0  0  0  0  0  0  0
    3.2480    0.0026    0.9749 C   0  0  0  0  0  0  0  0  0  0  0  0
    3.8550   -0.4356   -0.1948 C   0  0  0  0  0  0  0  0  0  0  0  0
    3.0648   -0.6331   -1.3203 C   0  0  0  0  0  0  0  0  0  0  0  0
    1.7161   -0.3409   -1.3066 C   0  0  0  0  0  0  0  0  0  0  0  0
    5.3481   -0.5244   -0.2844 C   0  0  0  0  0  0  0  0  0  0  0  0
    5.8721    0.8954   -0.5685 C   0  0  0  0  0  0  0  0  0  0  0  0
   -0.6491    1.6774    0.1590 C   0  0  0  0  0  0  0  0  0  0  0  0
    0.1194    2.8807    0.5300 C   0  0  0  0  0  0  0  0  0  0  0  0
   -0.5560    4.2161    0.1281 C   0  0  0  0  0  0  0  0  0  0  0  0
    0.3336    5.1747   -0.6470 C   0  0  0  0  0  0  0  0  0  0  0  0
    0.4535    4.7847   -2.1180 C   0  0  0  0  0  0  0  0  0  0  0  0
    1.3600    5.7484   -2.8733 C   0  0  0  0  0  0  0  0  0  0  0  0
   -1.4631   -0.0317   -2.6247 O   0  0  0  0  0  0  0  0  0  0  0  0
   -0.9050    2.5589    2.8729 N   0  0  0  0  0  0  0  0  0  0  0  0
   -2.1739    3.0792    2.7801 C   0  0  0  0  0  0  0  0  0  0  0  0
   -2.1658    4.3121    2.1103 C   0  0  0  0  0  0  0  0  0  0  0  0
   -0.7775    4.5752    1.6117 C   0  0  0  0  0  0  0  0  0  0  0  0
   -3.3515    2.5655    3.2962 C   0  0  0  0  0  0  0  0  0  0  0  0
   -3.3216    5.0406    1.9656 C   0  0  0  0  0  0  0  0  0  0  0  0
    0.0042    3.3127    2.0464 C   0  0  0  0  0  0  0  0  0  0  0  0
   -4.5137    3.3076    3.1406 C   0  0  0  0  0  0  0  0  0  0  0  0
   -4.5057    4.5292    2.4896 C   0  0  0  0  0  0  0  0  0  0  0  0
    1.3411    3.5241    2.7311 C   0  0  0  0  0  0  0  0  0  0  0  0
   -0.8962   -0.4734    2.6395 O   0  0  0  0  0  0  0  0  0  0  0  0
   -1.0789   -0.0156   -1.7276 H   0  0  0  0  0  0  0  0  0  0  0  0
   -0.1871    1.0520   -3.4022 H   0  0  0  0  0  0  0  0  0  0  0  0
    1.4364    0.6518    1.9091 H   0  0  0  0  0  0  0  0  0  0  0  0
    3.8408    0.1315    1.8689 H   0  0  0  0  0  0  0  0  0  0  0  0
    3.5122   -1.0096   -2.2295 H   0  0  0  0  0  0  0  0  0  0  0  0
    1.1240   -0.4707   -2.1975 H   0  0  0  0  0  0  0  0  0  0  0  0
    5.6638   -1.1902   -1.0892 H   0  0  0  0  0  0  0  0  0  0  0  0
    5.7928   -0.8772    0.6458 H   0  0  0  0  0  0  0  0  0  0  0  0
    5.5714    1.5626    0.2497 H   0  0  0  0  0  0  0  0  0  0  0  0
    5.3918    0.9033   -2.6079 H   0  0  0  0  0  0  0  0  0  0  0  0
    7.2197    2.9102   -1.0844 H   0  0  0  0  0  0  0  0  0  0  0  0
   -1.7324    1.7862    0.1524 H   0  0  0  0  0  0  0  0  0  0  0  0
    1.1580    2.7876    0.2060 H   0  0  0  0  0  0  0  0  0  0  0  0
   -1.4968    4.0750   -0.4125 H   0  0  0  0  0  0  0  0  0  0  0  0
   -0.0885    6.1812   -0.5735 H   0  0  0  0  0  0  0  0  0  0  0  0
    1.3284    5.1949   -0.1977 H   0  0  0  0  0  0  0  0  0  0  0  0
    0.8494    3.7713   -2.1945 H   0  0  0  0  0  0  0  0  0  0  0  0
   -0.5396    4.7891   -2.5746 H   0  0  0  0  0  0  0  0  0  0  0  0
    1.4591    5.4484   -3.9142 H   0  0  0  0  0  0  0  0  0  0  0  0
    0.9545    6.7581   -2.8446 H   0  0  0  0  0  0  0  0  0  0  0  0
    2.3491    5.7681   -2.4205 H   0  0  0  0  0  0  0  0  0  0  0  0
   -0.7748    1.5687    3.0176 H   0  0  0  0  0  0  0  0  0  0  0  0
   -0.3770    5.5405    1.9210 H   0  0  0  0  0  0  0  0  0  0  0  0
   -3.3593    1.6120    3.8015 H   0  0  0  0  0  0  0  0  0  0  0  0
   -3.3139    5.9887    1.4474 H   0  0  0  0  0  0  0  0  0  0  0  0
   -5.4426    2.9216    3.5356 H   0  0  0  0  0  0  0  0  0  0  0  0
   -5.4237    5.0875    2.3823 H   0  0  0  0  0  0  0  0  0  0  0  0
    2.0076    4.1011    2.0962 H   0  0  0  0  0  0  0  0  0  0  0  0
    1.1845    4.0583    3.6661 H   0  0  0  0  0  0  0  0  0  0  0  0
    1.8167    2.5725    2.9538 H   0  0  0  0  0  0  0  0  0  0  0  0
   -0.8184   -0.5197    1.6802 H   0  0  0  0  0  0  0  0  0  0  0  0
   -0.8751   -1.3731    2.9702 H   0  0  0  0  0  0  0  0  0  0  0  0
    0.4927    1.6736   -3.7108 O   0  0  0  0  0  0  0  0  0  0  0  0
   -2.3944    0.1747   -2.5289 H   0  0  0  0  0  0  0  0  0  0  0  0
    0.1299    2.1044   -4.4861 H   0  0  0  0  0  0  0  0  0  0  0  0
    5.2712    1.4458   -1.7666 N   0  0  0  0  0  0  0  0  0  0  0  0
    7.4005    0.9198   -0.6981 C   0  0  0  0  0  0  0  0  0  0  0  0
    8.1004   -0.0591   -0.5569 O   0  0  0  0  0  0  0  0  0  0  0  0
    3.6105    2.6231   -3.0541 C   0  0  0  0  0  0  0  0  0  0  0  0
    4.2642    2.3604   -1.7236 C   0  0  0  0  0  0  0  0  0  0  0  0
    3.9643    2.9413   -0.6999 O   0  0  0  0  0  0  0  0  0  0  0  0
    4.2252    2.2837   -3.8830 H   0  0  0  0  0  0  0  0  0  0  0  0
    3.4113    3.6861   -3.1543 H   0  0  0  0  0  0  0  0  0  0  0  0
    2.6510    2.1061   -3.0874 H   0  0  0  0  0  0  0  0  0  0  0  0
    7.8722    2.1468   -0.9963 N   0  0  0  0  0  0  0  0  0  0  0  0
    9.2751    2.4247   -1.1782 C   0  0  0  0  0  0  0  0  0  0  0  0
    9.6232    3.1552   -0.4458 H   0  0  0  0  0  0  0  0  0  0  0  0
    9.4671    2.8063   -2.1828 H   0  0  0  0  0  0  0  0  0  0  0  0
    9.8126    1.4884   -1.0375 H   0  0  0  0  0  0  0  0  0  0  0  0
  1  2  1  0  0  0  0
  2  3  4  0  0  0  0
  3  4  4  0  0  0  0
  4  5  4  0  0  0  0
  5  6  4  0  0  0  0
  2  7  4  0  0  0  0
  6  7  4  0  0  0  0
  5  8  1  0  0  0  0
  8  9  1  0  0  0  0
  1 10  2  0  0  0  0
 10 11  1  0  0  0  0
 11 12  1  0  0  0  0
 12 13  1  0  0  0  0
 13 14  1  0  0  0  0
 14 15  1  0  0  0  0
 17 18  1  0  0  0  0
 18 19  4  0  0  0  0
 12 20  1  0  0  0  0
 19 20  1  0  0  0  0
 18 21  4  0  0  0  0
 19 22  4  0  0  0  0
 11 23  1  0  0  0  0
 17 23  1  0  0  0  0
 20 23  1  0  0  0  0
 21 24  4  0  0  0  0
 22 25  4  0  0  0  0
 24 25  4  0  0  0  0
 23 26  1  0  0  0  0
 16 28  1  0  0  0  0
  3 30  1  0  0  0  0
  4 31  1  0  0  0  0
  6 32  1  0  0  0  0
  7 33  1  0  0  0  0
  8 34  1  0  0  0  0
  8 35  1  0  0  0  0
  9 36  1  0  0  0  0
 10 39  1  0  0  0  0
 11 40  1  0  0  0  0
 12 41  1  0  0  0  0
 13 42  1  0  0  0  0
 13 43  1  0  0  0  0
 14 44  1  0  0  0  0
 14 45  1  0  0  0  0
 15 46  1  0  0  0  0
 15 47  1  0  0  0  0
 15 48  1  0  0  0  0
 17 49  1  0  0  0  0
 20 50  1  0  0  0  0
 21 51  1  0  0  0  0
 22 52  1  0  0  0  0
 24 53  1  0  0  0  0
 25 54  1  0  0  0  0
 26 55  1  0  0  0  0
 26 56  1  0  0  0  0
 26 57  1  0  0  0  0
 27 58  1  0  0  0  0
 27 59  1  0  0  0  0
 29 60  1  0  0  0  0
 16 61  1  0  0  0  0
 60 62  1  0  0  0  0
  9 63  1  0  0  0  0
 37 63  1  0  0  0  0
  9 64  1  0  0  0  0
 64 65  2  0  0  0  0
 63 67  4  0  0  0  0
 66 67  1  0  0  0  0
 67 68  2  0  0  0  0
 66 69  1  0  0  0  0
 66 70  1  0  0  0  0
 66 71  1  0  0  0  0
 38 72  1  0  0  0  0
 64 72  4  0  0  0  0
 72 73  1  0  0  0  0
 73 74  1  0  0  0  0
 73 75  1  0  0  0  0
 73 76  1  0  0  0  0
M  END
