 xtb: 6.7.1pre (5071a88)
          08312613173D

 76 76  0     0  0            999 V2000
    0.4139    0.1135    1.1259 N   0  0  0  0  0  0  0  0  0  0  0  0
    1.7642   -0.0937    0.7480 C   0  0  0  0  0  0  0  0  0  0  0  0
    2.7789    0.5711    1.4310 C   0  0  0  0  0  0  0  0  0  0  0  0
    4.0999    0.3775    1.0846 C   0  0  0  0  0  0  0  0  0  0  0  0
    4.4511   -0.4826    0.0494 C   0  0  0  0  0  0  0  0  0  0  0  0
    3.4402   -1.1723   -0.6049 C   0  0  0  0  0  0  0  0  0  0  0  0
    2.1138   -0.9901   -0.2557 C   0  0  0  0  0  0  0  0  0  0  0  0
    5.8867   -0.6188   -0.3734 C   0  0  0  0  0  0  0  0  0  0  0  0
    6.4397    0.7232   -0.8586 C   0  0  0  0  0  0  0  0  0  0  0  0
   -0.2901    1.2413    0.5570 C   0  0  0  0  0  0  0  0  0  0  0  0
    0.4923    2.5439    0.6674 C   0  0  0  0  0  0  0  0  0  0  0  0
   -0.3913    3.7755    0.4093 C   0  0  0  0  0  0  0  0  0  0  0  0
    0.4725    5.0098    0.1029 C   0  0  0  0  0  0  0  0  0  0  0  0
    0.8450    5.0887   -1.3769 C   0  0  0  0  0  0  0  0  0  0  0  0
    1.8420    6.2081   -1.6488 C   0  0  0  0  0  0  0  0  0  0  0  0
   -0.5794    1.0348   -0.8294 O   0  0  0  0  0  0  0  0  0  0  0  0
   -2.2211    4.5172    3.5442 N   0  0  0  0  0  0  0  0  0  0  0  0
   -3.2513    4.0168    2.8043 C   0  0  0  0  0  0  0  0  0  0  0  0
   -2.7277    3.6698    1.5357 C   0  0  0  0  0  0  0  0  0  0  0  0
   -1.3330    3.9927    1.5562 C   0  0  0  0  0  0  0  0  0  0  0  0
   -4.5885    3.8316    3.1265 C   0  0  0  0  0  0  0  0  0  0  0  0
   -3.5830    3.1215    0.5781 C   0  0  0  0  0  0  0  0  0  0  0  0
   -1.0650    4.5013    2.8001 C   0  0  0  0  0  0  0  0  0  0  0  0
   -5.4084    3.2901    2.1596 C   0  0  0  0  0  0  0  0  0  0  0  0
   -4.9091    2.9402    0.9025 C   0  0  0  0  0  0  0  0  0  0  0  0
    0.1933    5.0227    3.4020 C   0  0  0  0  0  0  0  0  0  0  0  0
   -1.9888    2.5677   -2.6976 O   0  0  0  0  0  0  0  0  0  0  0  0
   -0.1238   -0.7339    0.9632 H   0  0  0  0  0  0  0  0  0  0  0  0
   -1.1704    0.2774   -0.9164 H   0  0  0  0  0  0  0  0  0  0  0  0
    2.5248    1.2263    2.2482 H   0  0  0  0  0  0  0  0  0  0  0  0
    4.8723    0.8986    1.6308 H   0  0  0  0  0  0  0  0  0  0  0  0
    3.6903   -1.8633   -1.3982 H   0  0  0  0  0  0  0  0  0  0  0  0
    1.3424   -1.5420   -0.7762 H   0  0  0  0  0  0  0  0  0  0  0  0
    5.9868   -1.3484   -1.1791 H   0  0  0  0  0  0  0  0  0  0  0  0
    6.5039   -0.9616    0.4592 H   0  0  0  0  0  0  0  0  0  0  0  0
    6.5648    1.4216   -0.0223 H   0  0  0  0  0  0  0  0  0  0  0  0
    4.8703    0.7268   -2.2692 H   0  0  0  0  0  0  0  0  0  0  0  0
    7.9463    2.5779   -1.4713 H   0  0  0  0  0  0  0  0  0  0  0  0
   -1.2380    1.3315    1.1090 H   0  0  0  0  0  0  0  0  0  0  0  0
    1.3109    2.5117   -0.0527 H   0  0  0  0  0  0  0  0  0  0  0  0
   -1.0013    3.5808   -0.4744 H   0  0  0  0  0  0  0  0  0  0  0  0
   -0.0837    5.9098    0.3689 H   0  0  0  0  0  0  0  0  0  0  0  0
    1.3822    4.9875    0.7053 H   0  0  0  0  0  0  0  0  0  0  0  0
    1.2767    4.1375   -1.6977 H   0  0  0  0  0  0  0  0  0  0  0  0
   -0.0617    5.2641   -1.9579 H   0  0  0  0  0  0  0  0  0  0  0  0
    2.0725    6.2665   -2.7104 H   0  0  0  0  0  0  0  0  0  0  0  0
    1.4292    7.1650   -1.3383 H   0  0  0  0  0  0  0  0  0  0  0  0
    2.7688    6.0415   -1.1024 H   0  0  0  0  0  0  0  0  0  0  0  0
   -2.2903    4.8575    4.4882 H   0  0  0  0  0  0  0  0  0  0  0  0
   -2.9658    5.3056   -1.2518 H   0  0  0  0  0  0  0  0  0  0  0  0
   -4.9699    4.1036    4.1000 H   0  0  0  0  0  0  0  0  0  0  0  0
   -3.2194    2.8407   -0.3987 H   0  0  0  0  0  0  0  0  0  0  0  0
   -6.4549    3.1324    2.3743 H   0  0  0  0  0  0  0  0  0  0  0  0
   -5.5835    2.5192    0.1712 H   0  0  0  0  0  0  0  0  0  0  0  0
    1.0609    4.5212    2.9849 H   0  0  0  0  0  0  0  0  0  0  0  0
    0.2978    6.0914    3.2104 H   0  0  0  0  0  0  0  0  0  0  0  0
    0.1866    4.8701    4.4803 H   0  0  0  0  0  0  0  0  0  0  0  0
    0.9077    2.6034    1.6709 H   0  0  0  0  0  0  0  0  0  0  0  0
   -1.4991    2.6425   -3.5183 H   0  0  0  0  0  0  0  0  0  0  0  0
   -2.5165    5.2804   -2.0987 O   0  0  0  0  0  0  0  0  0  0  0  0
   -1.3983    2.1377   -2.0567 H   0  0  0  0  0  0  0  0  0  0  0  0
   -2.4633    4.3439   -2.3458 H   0  0  0  0  0  0  0  0  0  0  0  0
    5.5030    1.3412   -1.7819 N   0  0  0  0  0  0  0  0  0  0  0  0
    7.8144    0.5508   -1.5413 C   0  0  0  0  0  0  0  0  0  0  0  0
    8.2581   -0.5294   -1.8721 O   0  0  0  0  0  0  0  0  0  0  0  0
    4.2423    3.1187   -2.7914 C   0  0  0  0  0  0  0  0  0  0  0  0
    5.3865    2.6769   -1.9112 C   0  0  0  0  0  0  0  0  0  0  0  0
    6.1575    3.4484   -1.3658 O   0  0  0  0  0  0  0  0  0  0  0  0
    3.3207    2.6275   -2.4873 H   0  0  0  0  0  0  0  0  0  0  0  0
    4.4538    2.8564   -3.8262 H   0  0  0  0  0  0  0  0  0  0  0  0
    4.1238    4.1955   -2.7167 H   0  0  0  0  0  0  0  0  0  0  0  0
    8.4380    1.7249   -1.7200 N   0  0  0  0  0  0  0  0  0  0  0  0
    9.7165    1.8359   -2.3774 C   0  0  0  0  0  0  0  0  0  0  0  0
   10.4340    2.3381   -1.7266 H   0  0  0  0  0  0  0  0  0  0  0  0
    9.6269    2.3987   -3.3086 H   0  0  0  0  0  0  0  0  0  0  0  0
   10.0675    0.8283   -2.5957 H   0  0  0  0  0  0  0  0  0  0  0  0
  1  2  1  0  0  0  0
  2  3  4  0  0  0  0
  3  4  4  0  0  0  0
  4  5  4  0  0  0  0
  5  6  4  0  0  0  0
  2  7  4  0  0  0  0
  6  7  4  0  0  0  0
  5  8  1  0  0  0  0
  8  9  1  0  0  0  0
  1 10  1  0  0  0  0
 10 11  1  0  0  0  0
 11 12  1  0  0  0  0
 12 13  1  0  0  0  0
 13 14  1  0  0  0  0
 14 15  1  0  0  0  0
 10 16  1  0  0  0  0
 17 18  1  0  0  0  0
 18 19  4  0  0  0  0
 12 20  1  0  0  0  0
 19 20  4  0  0  0  0
 18 21  4  0  0  0  0
 19 22  4  0  0  0  0
 17 23  1  0  0  0  0
 20 23  2  0  0  0  0
 21 24  4  0  0  0  0
 22 25  2  0  0  0  0
 24 25  4  0  0  0  0
 23 26  1  0  0  0  0
  1 28  1  0  0  0  0
 16 29  1  0  0  0  0
  3 30  1  0  0  0  0
  4 31  1  0  0  0  0
  6 32  1  0  0  0  0
  7 33  1  0  0  0  0
  8 34  1  0  0  0  0
  8 35  1  0  0  0  0
  9 36  1  0  0  0  0
 10 39  1  0  0  0  0
 11 40  1  0  0  0  0
 12 41  1  0  0  0  0
 13 42  1  0  0  0  0
 13 43  1  0  0  0  0
 14 44  1  0  0  0  0
 14 45  1  0  0  0  0
 15 46  1  0  0  0  0
 15 47  1  0  0  0  0
 15 48  1  0  0  0  0
 17 49  1  0  0  0  0
 21 51  1  0  0  0  0
 22 52  1  0  0  0  0
 24 53  1  0  0  0  0
 25 54  1  0  0  0  0
 26 55  1  0  0  0  0
 26 56  1  0  0  0  0
 26 57  1  0  0  0  0
 11 58  1  0  0  0  0
 27 59  1  0  0  0  0
 50 60  1  0  0  0  0
 27 61  1  0  0  0  0
 60 62  1  0  0  0  0
  9 63  1  0  0  0  0
 37 63  1  0  0  0  0
  9 64  1  0  0  0  0
 64 65  2  0  0  0  0
 63 67  4  0  0  0  0
 66 67  1  0  0  0  0
 67 68  2  0  0  0  0
 66 69  1  0  0  0  0
 66 70  1  0  0  0  0
 66 71  1  0  0  0  0
 38 72  1  0  0  0  0
 64 72  4  0  0  0  0
 72 73  1  0  0  0  0
 73 74  1  0  0  0  0
 73 75  1  0  0  0  0
 73 76  1  0  0  0  0
M  END
