 xtb: 6.7.1pre (5071a88)
          08312613163D

 76 76  0     0  0            999 V2000
    0.4686    0.2650    1.3017 N   0  0  0  0  0  0  0  0  0  0  0  0
    1.8035   -0.0008    0.9168 C   0  0  0  0  0  0  0  0  0  0  0  0
    2.8501    0.7494    1.4469 C   0  0  0  0  0  0  0  0  0  0  0  0
    4.1543    0.4905    1.0793 C   0  0  0  0  0  0  0  0  0  0  0  0
    4.4595   -0.5215    0.1751 C   0  0  0  0  0  0  0  0  0  0  0  0
    3.4190   -1.2961   -0.3182 C   0  0  0  0  0  0  0  0  0  0  0  0
    2.1100   -1.0476    0.0531 C   0  0  0  0  0  0  0  0  0  0  0  0
    5.8739   -0.7348   -0.2869 C   0  0  0  0  0  0  0  0  0  0  0  0
    6.4503    0.5420   -0.9043 C   0  0  0  0  0  0  0  0  0  0  0  0
   -0.2228    1.3749    0.6847 C   0  0  0  0  0  0  0  0  0  0  0  0
    0.5218    2.6967    0.8243 C   0  0  0  0  0  0  0  0  0  0  0  0
   -0.3698    3.9015    0.4801 C   0  0  0  0  0  0  0  0  0  0  0  0
    0.4848    5.1506    0.2109 C   0  0  0  0  0  0  0  0  0  0  0  0
    0.9695    5.2036   -1.2374 C   0  0  0  0  0  0  0  0  0  0  0  0
    1.9603    6.3390   -1.4610 C   0  0  0  0  0  0  0  0  0  0  0  0
   -0.4333    1.1486   -0.7126 O   0  0  0  0  0  0  0  0  0  0  0  0
   -2.4437    4.6610    3.4547 N   0  0  0  0  0  0  0  0  0  0  0  0
   -3.4028    4.1145    2.6543 C   0  0  0  0  0  0  0  0  0  0  0  0
   -2.7780    3.7534    1.4364 C   0  0  0  0  0  0  0  0  0  0  0  0
   -1.3979    4.1167    1.5505 C   0  0  0  0  0  0  0  0  0  0  0  0
   -4.7548    3.8989    2.8821 C   0  0  0  0  0  0  0  0  0  0  0  0
   -3.5454    3.1591    0.4328 C   0  0  0  0  0  0  0  0  0  0  0  0
   -1.2361    4.6618    2.7974 C   0  0  0  0  0  0  0  0  0  0  0  0
   -5.4864    3.3123    1.8716 C   0  0  0  0  0  0  0  0  0  0  0  0
   -4.8865    2.9479    0.6636 C   0  0  0  0  0  0  0  0  0  0  0  0
   -0.0393    5.2329    3.4748 C   0  0  0  0  0  0  0  0  0  0  0  0
   -1.7060    2.6335   -2.7163 O   0  0  0  0  0  0  0  0  0  0  0  0
   -0.0905   -0.5781    1.2020 H   0  0  0  0  0  0  0  0  0  0  0  0
   -0.9945    0.3721   -0.8242 H   0  0  0  0  0  0  0  0  0  0  0  0
    2.6391    1.5261    2.1628 H   0  0  0  0  0  0  0  0  0  0  0  0
    4.9492    1.0842    1.5054 H   0  0  0  0  0  0  0  0  0  0  0  0
    3.6322   -2.1034   -1.0051 H   0  0  0  0  0  0  0  0  0  0  0  0
    1.3158   -1.6677   -0.3416 H   0  0  0  0  0  0  0  0  0  0  0  0
    5.9197   -1.5317   -1.0318 H   0  0  0  0  0  0  0  0  0  0  0  0
    6.5123   -1.0302    0.5483 H   0  0  0  0  0  0  0  0  0  0  0  0
    6.6916    1.2808   -0.1307 H   0  0  0  0  0  0  0  0  0  0  0  0
    4.7613    0.5563   -2.1687 H   0  0  0  0  0  0  0  0  0  0  0  0
    7.9821    2.2684   -1.7710 H   0  0  0  0  0  0  0  0  0  0  0  0
   -1.1994    1.4520    1.1862 H   0  0  0  0  0  0  0  0  0  0  0  0
    1.3890    2.6736    0.1637 H   0  0  0  0  0  0  0  0  0  0  0  0
   -0.9092    3.6757   -0.4412 H   0  0  0  0  0  0  0  0  0  0  0  0
   -0.1131    6.0413    0.4088 H   0  0  0  0  0  0  0  0  0  0  0  0
    1.3444    5.1671    0.8831 H   0  0  0  0  0  0  0  0  0  0  0  0
    1.4453    4.2559   -1.5004 H   0  0  0  0  0  0  0  0  0  0  0  0
    0.1063    5.3445   -1.8897 H   0  0  0  0  0  0  0  0  0  0  0  0
    2.2635    6.3832   -2.5048 H   0  0  0  0  0  0  0  0  0  0  0  0
    1.5080    7.2924   -1.1985 H   0  0  0  0  0  0  0  0  0  0  0  0
    2.8505    6.2014   -0.8496 H   0  0  0  0  0  0  0  0  0  0  0  0
   -2.5918    5.0227    4.3815 H   0  0  0  0  0  0  0  0  0  0  0  0
   -2.8647    5.3386   -1.3391 H   0  0  0  0  0  0  0  0  0  0  0  0
   -5.2143    4.1823    3.8179 H   0  0  0  0  0  0  0  0  0  0  0  0
   -3.1034    2.8669   -0.5076 H   0  0  0  0  0  0  0  0  0  0  0  0
   -6.5414    3.1302    2.0129 H   0  0  0  0  0  0  0  0  0  0  0  0
   -5.4936    2.4916   -0.1045 H   0  0  0  0  0  0  0  0  0  0  0  0
    0.8660    4.7233    3.1596 H   0  0  0  0  0  0  0  0  0  0  0  0
    0.0699    6.2917    3.2364 H   0  0  0  0  0  0  0  0  0  0  0  0
   -0.1358    5.1360    4.5552 H   0  0  0  0  0  0  0  0  0  0  0  0
    0.8605    2.7823    1.8551 H   0  0  0  0  0  0  0  0  0  0  0  0
   -1.1418    2.7311   -3.4852 H   0  0  0  0  0  0  0  0  0  0  0  0
   -2.3621    5.3295   -2.1559 O   0  0  0  0  0  0  0  0  0  0  0  0
   -1.1673    2.2148   -2.0247 H   0  0  0  0  0  0  0  0  0  0  0  0
   -2.2664    4.3960   -2.4011 H   0  0  0  0  0  0  0  0  0  0  0  0
    5.4670    1.1601   -1.7782 N   0  0  0  0  0  0  0  0  0  0  0  0
    7.7436    0.2511   -1.6968 C   0  0  0  0  0  0  0  0  0  0  0  0
    8.1002   -0.8700   -1.9951 O   0  0  0  0  0  0  0  0  0  0  0  0
    4.1932    2.9521   -2.7464 C   0  0  0  0  0  0  0  0  0  0  0  0
    5.3988    2.4929   -1.9618 C   0  0  0  0  0  0  0  0  0  0  0  0
    6.2551    3.2480   -1.5338 O   0  0  0  0  0  0  0  0  0  0  0  0
    3.2881    2.4984   -2.3489 H   0  0  0  0  0  0  0  0  0  0  0  0
    4.3027    2.6600   -3.7891 H   0  0  0  0  0  0  0  0  0  0  0  0
    4.1168    4.0339   -2.6895 H   0  0  0  0  0  0  0  0  0  0  0  0
    8.4028    1.3762   -2.0115 N   0  0  0  0  0  0  0  0  0  0  0  0
    9.6149    1.3770   -2.7925 C   0  0  0  0  0  0  0  0  0  0  0  0
   10.4170    1.8755   -2.2461 H   0  0  0  0  0  0  0  0  0  0  0  0
    9.4625    1.8886   -3.7449 H   0  0  0  0  0  0  0  0  0  0  0  0
    9.8919    0.3404   -2.9786 H   0  0  0  0  0  0  0  0  0  0  0  0
  1  2  1  0  0  0  0
  2  3  4  0  0  0  0
  3  4  4  0  0  0  0
  4  5  4  0  0  0  0
  5  6  4  0  0  0  0
  2  7  4  0  0  0  0
  6  7  4  0  0  0  0
  5  8  1  0  0  0  0
  8  9  1  0  0  0  0
  1 10  1  0  0  0  0
 10 11  1  0  0  0  0
 11 12  1  0  0  0  0
 12 13  1  0  0  0  0
 13 14  1  0  0  0  0
 14 15  1  0  0  0  0
 10 16  1  0  0  0  0
 17 18  1  0  0  0  0
 18 19  4  0  0  0  0
 12 20  1  0  0  0  0
 19 20  4  0  0  0  0
 18 21  4  0  0  0  0
 19 22  4  0  0  0  0
 17 23  1  0  0  0  0
 20 23  2  0  0  0  0
 21 24  4  0  0  0  0
 22 25  2  0  0  0  0
 24 25  4  0  0  0  0
 23 26  1  0  0  0  0
  1 28  1  0  0  0  0
 16 29  1  0  0  0  0
  3 30  1  0  0  0  0
  4 31  1  0  0  0  0
  6 32  1  0  0  0  0
  7 33  1  0  0  0  0
  8 34  1  0  0  0  0
  8 35  1  0  0  0  0
  9 36  1  0  0  0  0
 10 39  1  0  0  0  0
 11 40  1  0  0  0  0
 12 41  1  0  0  0  0
 13 42  1  0  0  0  0
 13 43  1  0  0  0  0
 14 44  1  0  0  0  0
 14 45  1  0  0  0  0
 15 46  1  0  0  0  0
 15 47  1  0  0  0  0
 15 48  1  0  0  0  0
 17 49  1  0  0  0  0
 21 51  1  0  0  0  0
 22 52  1  0  0  0  0
 24 53  1  0  0  0  0
 25 54  1  0  0  0  0
 26 55  1  0  0  0  0
 26 56  1  0  0  0  0
 26 57  1  0  0  0  0
 11 58  1  0  0  0  0
 27 59  1  0  0  0  0
 50 60  1  0  0  0  0
 27 61  1  0  0  0  0
 60 62  1  0  0  0  0
  9 63  1  0  0  0  0
 37 63  1  0  0  0  0
  9 64  1  0  0  0  0
 64 65  2  0  0  0  0
 63 67  4  0  0  0  0
 66 67  1  0  0  0  0
 67 68  2  0  0  0  0
 66 69  1  0  0  0  0
 66 70  1  0  0  0  0
 66 71  1  0  0  0  0
 38 72  1  0  0  0  0
 64 72  4  0  0  0  0
 72 73  1  0  0  0  0
 73 74  1  0  0  0  0
 73 75  1  0  0  0  0
 73 76  1  0  0  0  0
M  END
