 xtb: 6.7.1pre (5071a88)
          08312613153D

 57 54  0     0  0            999 V2000
   -0.2528   -0.1271   -0.9558 N   0  0  0  0  0  0  0  0  0  0  0  0
    1.0594    0.0831   -0.6039 C   0  0  0  0  0  0  0  0  0  0  0  0
    1.4976    1.3261   -0.1414 C   0  0  0  0  0  0  0  0  0  0  0  0
    2.8439    1.5701    0.0412 C   0  0  0  0  0  0  0  0  0  0  0  0
    3.7926    0.5843   -0.1992 C   0  0  0  0  0  0  0  0  0  0  0  0
    3.3500   -0.6725   -0.5959 C   0  0  0  0  0  0  0  0  0  0  0  0
    2.0100   -0.9218   -0.7993 C   0  0  0  0  0  0  0  0  0  0  0  0
    5.2600    0.8923   -0.1349 C   0  0  0  0  0  0  0  0  0  0  0  0
    5.7484    1.2766   -1.5497 C   0  0  0  0  0  0  0  0  0  0  0  0
    2.2595    0.5109   -3.6452 C   0  0  0  0  0  0  0  0  0  0  0  0
    2.7112    1.8738   -3.5120 C   0  0  0  0  0  0  0  0  0  0  0  0
    1.9361    2.8328   -2.9930 C   0  0  0  0  0  0  0  0  0  0  0  0
    2.3681    4.2297   -2.7554 C   0  0  0  0  0  0  0  0  0  0  0  0
    1.4105    5.2418   -3.3975 C   0  0  0  0  0  0  0  0  0  0  0  0
    1.8480    6.6721   -3.1116 C   0  0  0  0  0  0  0  0  0  0  0  0
    2.9749   -0.4263   -3.9557 O   0  0  0  0  0  0  0  0  0  0  0  0
   -0.5793   -2.8361   -2.0964 O   0  0  0  0  0  0  0  0  0  0  0  0
   -0.5092   -1.0890   -1.1442 H   0  0  0  0  0  0  0  0  0  0  0  0
   -0.9489    0.4174   -0.4736 H   0  0  0  0  0  0  0  0  0  0  0  0
    0.7720    2.1020    0.0618 H   0  0  0  0  0  0  0  0  0  0  0  0
    3.1683    2.5450    0.3782 H   0  0  0  0  0  0  0  0  0  0  0  0
    4.0682   -1.4664   -0.7432 H   0  0  0  0  0  0  0  0  0  0  0  0
    1.6733   -1.8995   -1.1061 H   0  0  0  0  0  0  0  0  0  0  0  0
    5.8255    0.0293    0.2167 H   0  0  0  0  0  0  0  0  0  0  0  0
    5.4483    1.7345    0.5327 H   0  0  0  0  0  0  0  0  0  0  0  0
    5.0623    2.0313   -1.9466 H   0  0  0  0  0  0  0  0  0  0  0  0
    4.9853    0.1863   -3.1789 H   0  0  0  0  0  0  0  0  0  0  0  0
    7.9499    0.1962   -0.9478 H   0  0  0  0  0  0  0  0  0  0  0  0
    1.1908    0.3503   -3.4351 H   0  0  0  0  0  0  0  0  0  0  0  0
    3.7282    2.0887   -3.8140 H   0  0  0  0  0  0  0  0  0  0  0  0
    0.9211    2.5891   -2.7052 H   0  0  0  0  0  0  0  0  0  0  0  0
    2.3746    4.4016   -1.6745 H   0  0  0  0  0  0  0  0  0  0  0  0
    3.3820    4.3874   -3.1268 H   0  0  0  0  0  0  0  0  0  0  0  0
    1.3868    5.0750   -4.4763 H   0  0  0  0  0  0  0  0  0  0  0  0
    0.4014    5.0821   -3.0119 H   0  0  0  0  0  0  0  0  0  0  0  0
    1.1691    7.3780   -3.5836 H   0  0  0  0  0  0  0  0  0  0  0  0
    1.8546    6.8644   -2.0412 H   0  0  0  0  0  0  0  0  0  0  0  0
    2.8494    6.8492   -3.4967 H   0  0  0  0  0  0  0  0  0  0  0  0
    0.1854   -2.8491   -2.7016 H   0  0  0  0  0  0  0  0  0  0  0  0
   -1.2946   -3.2667   -2.5663 H   0  0  0  0  0  0  0  0  0  0  0  0
    1.6540   -2.8999   -3.7406 O   0  0  0  0  0  0  0  0  0  0  0  0
    2.0986   -2.0441   -3.8690 H   0  0  0  0  0  0  0  0  0  0  0  0
    2.3222   -3.5033   -3.4096 H   0  0  0  0  0  0  0  0  0  0  0  0
    5.6994    0.1447   -2.4655 N   0  0  0  0  0  0  0  0  0  0  0  0
    7.1216    1.9712   -1.4818 C   0  0  0  0  0  0  0  0  0  0  0  0
    7.2217    3.1564   -1.7450 O   0  0  0  0  0  0  0  0  0  0  0  0
    5.8980   -2.0728   -3.3455 C   0  0  0  0  0  0  0  0  0  0  0  0
    6.2835   -1.0562   -2.2949 C   0  0  0  0  0  0  0  0  0  0  0  0
    7.0857   -1.3123   -1.4086 O   0  0  0  0  0  0  0  0  0  0  0  0
    6.0456   -3.0737   -2.9489 H   0  0  0  0  0  0  0  0  0  0  0  0
    6.5523   -1.9482   -4.2068 H   0  0  0  0  0  0  0  0  0  0  0  0
    4.8695   -1.9382   -3.6663 H   0  0  0  0  0  0  0  0  0  0  0  0
    8.1266    1.1931   -1.0711 N   0  0  0  0  0  0  0  0  0  0  0  0
    9.4771    1.6782   -0.9395 C   0  0  0  0  0  0  0  0  0  0  0  0
   10.1408    1.1671   -1.6398 H   0  0  0  0  0  0  0  0  0  0  0  0
    9.8392    1.5128    0.0766 H   0  0  0  0  0  0  0  0  0  0  0  0
    9.4753    2.7457   -1.1557 H   0  0  0  0  0  0  0  0  0  0  0  0
  1  2  1  0  0  0  0
  2  3  4  0  0  0  0
  3  4  4  0  0  0  0
  4  5  4  0  0  0  0
  5  6  4  0  0  0  0
  2  7  4  0  0  0  0
  6  7  4  0  0  0  0
  5  8  1  0  0  0  0
  8  9  1  0  0  0  0
 10 11  1  0  0  0  0
 11 12  2  0  0  0  0
 12 13  1  0  0  0  0
 13 14  1  0  0  0  0
 14 15  1  0  0  0  0
 10 16  2  0  0  0  0
  1 18  1  0  0  0  0
  1 19  1  0  0  0  0
  3 20  1  0  0  0  0
  4 21  1  0  0  0  0
  6 22  1  0  0  0  0
  7 23  1  0  0  0  0
  8 24  1  0  0  0  0
  8 25  1  0  0  0  0
  9 26  1  0  0  0  0
 10 29  1  0  0  0  0
 11 30  1  0  0  0  0
 12 31  1  0  0  0  0
 13 32  1  0  0  0  0
 13 33  1  0  0  0  0
 14 34  1  0  0  0  0
 14 35  1  0  0  0  0
 15 36  1  0  0  0  0
 15 37  1  0  0  0  0
 15 38  1  0  0  0  0
 17 39  1  0  0  0  0
 17 40  1  0  0  0  0
 41 42  1  0  0  0  0
 41 43  1  0  0  0  0
  9 44  1  0  0  0  0
 27 44  1  0  0  0  0
  9 45  1  0  0  0  0
 45 46  2  0  0  0  0
 44 48  4  0  0  0  0
 47 48  1  0  0  0  0
 48 49  2  0  0  0  0
 47 50  1  0  0  0  0
 47 51  1  0  0  0  0
 47 52  1  0  0  0  0
 28 53  1  0  0  0  0
 45 53  4  0  0  0  0
 53 54  1  0  0  0  0
 54 55  1  0  0  0  0
 54 56  1  0  0  0  0
 54 57  1  0  0  0  0
M  END
