 xtb: 6.7.1pre (5071a88)
          08312613153D

 57 54  0     0  0            999 V2000
   -0.1541   -1.0997    0.0029 N   0  0  0  0  0  0  0  0  0  0  0  0
    1.1990   -0.8779    0.1582 C   0  0  0  0  0  0  0  0  0  0  0  0
    1.6463    0.0280    1.1257 C   0  0  0  0  0  0  0  0  0  0  0  0
    2.9847    0.3737    1.1840 C   0  0  0  0  0  0  0  0  0  0  0  0
    3.9047   -0.1783    0.2930 C   0  0  0  0  0  0  0  0  0  0  0  0
    3.4595   -1.1124   -0.6400 C   0  0  0  0  0  0  0  0  0  0  0  0
    2.1212   -1.4625   -0.7136 C   0  0  0  0  0  0  0  0  0  0  0  0
    5.3256    0.3224    0.2580 C   0  0  0  0  0  0  0  0  0  0  0  0
    5.3901    1.5889   -0.6047 C   0  0  0  0  0  0  0  0  0  0  0  0
   -1.0765    0.8142   -1.3948 C   0  0  0  0  0  0  0  0  0  0  0  0
    0.1618    1.5734   -1.2562 C   0  0  0  0  0  0  0  0  0  0  0  0
    0.2990    2.5310   -0.3274 C   0  0  0  0  0  0  0  0  0  0  0  0
    1.5421    3.3176   -0.0993 C   0  0  0  0  0  0  0  0  0  0  0  0
    1.3722    4.7694   -0.5815 C   0  0  0  0  0  0  0  0  0  0  0  0
    2.6256    5.5880   -0.2857 C   0  0  0  0  0  0  0  0  0  0  0  0
   -2.0912    1.0301   -0.7470 O   0  0  0  0  0  0  0  0  0  0  0  0
   -2.9722   -1.3859    0.5938 O   0  0  0  0  0  0  0  0  0  0  0  0
   -0.7222   -0.8672    0.8043 H   0  0  0  0  0  0  0  0  0  0  0  0
   -0.4280   -1.9697   -0.4258 H   0  0  0  0  0  0  0  0  0  0  0  0
    0.9307    0.4710    1.8095 H   0  0  0  0  0  0  0  0  0  0  0  0
    3.3197    1.0921    1.9252 H   0  0  0  0  0  0  0  0  0  0  0  0
    4.1669   -1.5665   -1.3274 H   0  0  0  0  0  0  0  0  0  0  0  0
    1.7822   -2.1744   -1.4581 H   0  0  0  0  0  0  0  0  0  0  0  0
    6.0024   -0.4287   -0.1586 H   0  0  0  0  0  0  0  0  0  0  0  0
    5.6801    0.5771    1.2600 H   0  0  0  0  0  0  0  0  0  0  0  0
    4.7298    2.3654   -0.1972 H   0  0  0  0  0  0  0  0  0  0  0  0
    5.1104    0.3651   -2.3146 H   0  0  0  0  0  0  0  0  0  0  0  0
    6.0286    3.8033   -1.5744 H   0  0  0  0  0  0  0  0  0  0  0  0
   -1.0624    0.0442   -2.1878 H   0  0  0  0  0  0  0  0  0  0  0  0
    0.9854    1.3003   -1.9076 H   0  0  0  0  0  0  0  0  0  0  0  0
   -0.5478    2.7737    0.3109 H   0  0  0  0  0  0  0  0  0  0  0  0
    1.7638    3.3258    0.9731 H   0  0  0  0  0  0  0  0  0  0  0  0
    2.3870    2.8624   -0.6220 H   0  0  0  0  0  0  0  0  0  0  0  0
    1.1808    4.7645   -1.6586 H   0  0  0  0  0  0  0  0  0  0  0  0
    0.5060    5.2196   -0.0858 H   0  0  0  0  0  0  0  0  0  0  0  0
    2.4946    6.6106   -0.6405 H   0  0  0  0  0  0  0  0  0  0  0  0
    2.8236    5.6136    0.7870 H   0  0  0  0  0  0  0  0  0  0  0  0
    3.4884    5.1518   -0.7888 H   0  0  0  0  0  0  0  0  0  0  0  0
   -2.8303   -0.9427    1.4378 H   0  0  0  0  0  0  0  0  0  0  0  0
   -3.0000   -0.6700   -0.0536 H   0  0  0  0  0  0  0  0  0  0  0  0
   -1.6817    0.8081    1.9697 O   0  0  0  0  0  0  0  0  0  0  0  0
   -2.1998    1.3885    2.5290 H   0  0  0  0  0  0  0  0  0  0  0  0
   -1.8858    1.0587    1.0526 H   0  0  0  0  0  0  0  0  0  0  0  0
    4.9255    1.2877   -1.9547 N   0  0  0  0  0  0  0  0  0  0  0  0
    6.8256    2.1423   -0.6893 C   0  0  0  0  0  0  0  0  0  0  0  0
    7.7885    1.5125   -0.3009 O   0  0  0  0  0  0  0  0  0  0  0  0
    3.7979    1.6925   -4.0362 C   0  0  0  0  0  0  0  0  0  0  0  0
    4.2849    2.2063   -2.6994 C   0  0  0  0  0  0  0  0  0  0  0  0
    4.1058    3.3553   -2.3247 O   0  0  0  0  0  0  0  0  0  0  0  0
    3.0701    0.8970   -3.8789 H   0  0  0  0  0  0  0  0  0  0  0  0
    4.6304    1.2932   -4.6138 H   0  0  0  0  0  0  0  0  0  0  0  0
    3.3306    2.5077   -4.5835 H   0  0  0  0  0  0  0  0  0  0  0  0
    6.8746    3.3725   -1.2261 N   0  0  0  0  0  0  0  0  0  0  0  0
    8.1399    4.0421   -1.4699 C   0  0  0  0  0  0  0  0  0  0  0  0
    8.1362    5.0263   -0.9965 H   0  0  0  0  0  0  0  0  0  0  0  0
    8.3018    4.1597   -2.5445 H   0  0  0  0  0  0  0  0  0  0  0  0
    8.9367    3.4323   -1.0440 H   0  0  0  0  0  0  0  0  0  0  0  0
  1  2  1  0  0  0  0
  2  3  4  0  0  0  0
  3  4  4  0  0  0  0
  4  5  4  0  0  0  0
  5  6  4  0  0  0  0
  2  7  4  0  0  0  0
  6  7  4  0  0  0  0
  5  8  1  0  0  0  0
  8  9  1  0  0  0  0
 10 11  1  0  0  0  0
 11 12  2  0  0  0  0
 12 13  1  0  0  0  0
 13 14  1  0  0  0  0
 14 15  1  0  0  0  0
 10 16  2  0  0  0  0
  1 18  1  0  0  0  0
  1 19  1  0  0  0  0
  3 20  1  0  0  0  0
  4 21  1  0  0  0  0
  6 22  1  0  0  0  0
  7 23  1  0  0  0  0
  8 24  1  0  0  0  0
  8 25  1  0  0  0  0
  9 26  1  0  0  0  0
 10 29  1  0  0  0  0
 11 30  1  0  0  0  0
 12 31  1  0  0  0  0
 13 32  1  0  0  0  0
 13 33  1  0  0  0  0
 14 34  1  0  0  0  0
 14 35  1  0  0  0  0
 15 36  1  0  0  0  0
 15 37  1  0  0  0  0
 15 38  1  0  0  0  0
 17 39  1  0  0  0  0
 17 40  1  0  0  0  0
 41 42  1  0  0  0  0
 41 43  1  0  0  0  0
  9 44  1  0  0  0  0
 27 44  1  0  0  0  0
  9 45  1  0  0  0  0
 45 46  2  0  0  0  0
 44 48  4  0  0  0  0
 47 48  1  0  0  0  0
 48 49  2  0  0  0  0
 47 50  1  0  0  0  0
 47 51  1  0  0  0  0
 47 52  1  0  0  0  0
 28 53  1  0  0  0  0
 45 53  4  0  0  0  0
 53 54  1  0  0  0  0
 54 55  1  0  0  0  0
 54 56  1  0  0  0  0
 54 57  1  0  0  0  0
M  END
