 xtb: 6.7.1pre (5071a88)
          08312613173D

 57 54  0     0  0            999 V2000
   -0.1326   -0.6222    0.6210 N   0  0  0  0  0  0  0  0  0  0  0  0
    1.2451   -0.5571    0.6616 C   0  0  0  0  0  0  0  0  0  0  0  0
    1.8784    0.4339    1.4141 C   0  0  0  0  0  0  0  0  0  0  0  0
    3.2438    0.6052    1.3376 C   0  0  0  0  0  0  0  0  0  0  0  0
    4.0220   -0.2013    0.5140 C   0  0  0  0  0  0  0  0  0  0  0  0
    3.3939   -1.2088   -0.2073 C   0  0  0  0  0  0  0  0  0  0  0  0
    2.0267   -1.3930   -0.1348 C   0  0  0  0  0  0  0  0  0  0  0  0
    5.4893    0.0748    0.3504 C   0  0  0  0  0  0  0  0  0  0  0  0
    5.6931    1.3575   -0.4605 C   0  0  0  0  0  0  0  0  0  0  0  0
   -0.8928    0.6389   -1.1763 C   0  0  0  0  0  0  0  0  0  0  0  0
    0.2166    1.5773   -1.0703 C   0  0  0  0  0  0  0  0  0  0  0  0
    0.1173    2.7705   -0.4815 C   0  0  0  0  0  0  0  0  0  0  0  0
    1.2309    3.7486   -0.3848 C   0  0  0  0  0  0  0  0  0  0  0  0
    1.0232    4.9165   -1.3605 C   0  0  0  0  0  0  0  0  0  0  0  0
    2.2081    5.8724   -1.3282 C   0  0  0  0  0  0  0  0  0  0  0  0
   -2.0402    0.8476   -0.7961 O   0  0  0  0  0  0  0  0  0  0  0  0
   -2.7546   -1.7511    0.2621 O   0  0  0  0  0  0  0  0  0  0  0  0
   -0.6203   -0.1551    1.3749 H   0  0  0  0  0  0  0  0  0  0  0  0
   -0.5630   -1.5032    0.3668 H   0  0  0  0  0  0  0  0  0  0  0  0
    1.2815    1.0730    2.0477 H   0  0  0  0  0  0  0  0  0  0  0  0
    3.7163    1.3810    1.9224 H   0  0  0  0  0  0  0  0  0  0  0  0
    3.9832   -1.8644   -0.8342 H   0  0  0  0  0  0  0  0  0  0  0  0
    1.5509   -2.1772   -0.7059 H   0  0  0  0  0  0  0  0  0  0  0  0
    5.9897   -0.7469   -0.1648 H   0  0  0  0  0  0  0  0  0  0  0  0
    5.9742    0.2040    1.3191 H   0  0  0  0  0  0  0  0  0  0  0  0
    5.3395    2.2310    0.1005 H   0  0  0  0  0  0  0  0  0  0  0  0
    4.7160    0.3825   -2.0537 H   0  0  0  0  0  0  0  0  0  0  0  0
    6.6352    3.4521   -1.3757 H   0  0  0  0  0  0  0  0  0  0  0  0
   -0.6812   -0.2385   -1.8098 H   0  0  0  0  0  0  0  0  0  0  0  0
    1.1586    1.2503   -1.4856 H   0  0  0  0  0  0  0  0  0  0  0  0
   -0.8407    3.0795   -0.0826 H   0  0  0  0  0  0  0  0  0  0  0  0
    1.2810    4.1476    0.6309 H   0  0  0  0  0  0  0  0  0  0  0  0
    2.1800    3.2609   -0.6125 H   0  0  0  0  0  0  0  0  0  0  0  0
    0.9033    4.5152   -2.3694 H   0  0  0  0  0  0  0  0  0  0  0  0
    0.1044    5.4485   -1.1036 H   0  0  0  0  0  0  0  0  0  0  0  0
    2.0686    6.6753   -2.0483 H   0  0  0  0  0  0  0  0  0  0  0  0
    2.3163    6.3128   -0.3394 H   0  0  0  0  0  0  0  0  0  0  0  0
    3.1265    5.3426   -1.5705 H   0  0  0  0  0  0  0  0  0  0  0  0
   -2.9079   -1.3413    1.1198 H   0  0  0  0  0  0  0  0  0  0  0  0
   -2.7927   -1.0216   -0.3692 H   0  0  0  0  0  0  0  0  0  0  0  0
   -2.5101    0.7372    1.8914 O   0  0  0  0  0  0  0  0  0  0  0  0
   -3.1916    1.3081    2.2490 H   0  0  0  0  0  0  0  0  0  0  0  0
   -2.4478    0.9428    0.9415 H   0  0  0  0  0  0  0  0  0  0  0  0
    4.9098    1.2994   -1.6835 N   0  0  0  0  0  0  0  0  0  0  0  0
    7.1802    1.5743   -0.8144 C   0  0  0  0  0  0  0  0  0  0  0  0
    8.0186    0.7038   -0.7097 O   0  0  0  0  0  0  0  0  0  0  0  0
    3.5643    2.1227   -3.4999 C   0  0  0  0  0  0  0  0  0  0  0  0
    4.4255    2.3966   -2.2900 C   0  0  0  0  0  0  0  0  0  0  0  0
    4.6821    3.5230   -1.8938 O   0  0  0  0  0  0  0  0  0  0  0  0
    2.9486    1.2388   -3.3557 H   0  0  0  0  0  0  0  0  0  0  0  0
    4.2080    1.9651   -4.3639 H   0  0  0  0  0  0  0  0  0  0  0  0
    2.9334    2.9852   -3.6949 H   0  0  0  0  0  0  0  0  0  0  0  0
    7.4189    2.8190   -1.2573 N   0  0  0  0  0  0  0  0  0  0  0  0
    8.7195    3.2469   -1.7102 C   0  0  0  0  0  0  0  0  0  0  0  0
    9.0514    4.1177   -1.1428 H   0  0  0  0  0  0  0  0  0  0  0  0
    8.6960    3.5018   -2.7715 H   0  0  0  0  0  0  0  0  0  0  0  0
    9.4143    2.4236   -1.5508 H   0  0  0  0  0  0  0  0  0  0  0  0
  1  2  1  0  0  0  0
  2  3  4  0  0  0  0
  3  4  4  0  0  0  0
  4  5  4  0  0  0  0
  5  6  4  0  0  0  0
  2  7  4  0  0  0  0
  6  7  4  0  0  0  0
  5  8  1  0  0  0  0
  8  9  1  0  0  0  0
 10 11  1  0  0  0  0
 11 12  2  0  0  0  0
 12 13  1  0  0  0  0
 13 14  1  0  0  0  0
 14 15  1  0  0  0  0
 10 16  2  0  0  0  0
  1 18  1  0  0  0  0
  1 19  1  0  0  0  0
  3 20  1  0  0  0  0
  4 21  1  0  0  0  0
  6 22  1  0  0  0  0
  7 23  1  0  0  0  0
  8 24  1  0  0  0  0
  8 25  1  0  0  0  0
  9 26  1  0  0  0  0
 10 29  1  0  0  0  0
 11 30  1  0  0  0  0
 12 31  1  0  0  0  0
 13 32  1  0  0  0  0
 13 33  1  0  0  0  0
 14 34  1  0  0  0  0
 14 35  1  0  0  0  0
 15 36  1  0  0  0  0
 15 37  1  0  0  0  0
 15 38  1  0  0  0  0
 17 39  1  0  0  0  0
 17 40  1  0  0  0  0
 41 42  1  0  0  0  0
 41 43  1  0  0  0  0
  9 44  1  0  0  0  0
 27 44  1  0  0  0  0
  9 45  1  0  0  0  0
 45 46  2  0  0  0  0
 44 48  4  0  0  0  0
 47 48  1  0  0  0  0
 48 49  2  0  0  0  0
 47 50  1  0  0  0  0
 47 51  1  0  0  0  0
 47 52  1  0  0  0  0
 28 53  1  0  0  0  0
 45 53  4  0  0  0  0
 53 54  1  0  0  0  0
 54 55  1  0  0  0  0
 54 56  1  0  0  0  0
 54 57  1  0  0  0  0
M  END
