 xtb: 6.7.1pre (5071a88)
          08312613153D

 57 55  0     0  0            999 V2000
   -0.1122    0.1324    0.5315 N   0  0  0  0  0  0  0  0  0  0  0  0
    1.2547   -0.1720    0.3952 C   0  0  0  0  0  0  0  0  0  0  0  0
    2.1149    0.0518    1.4708 C   0  0  0  0  0  0  0  0  0  0  0  0
    3.4777   -0.1340    1.3205 C   0  0  0  0  0  0  0  0  0  0  0  0
    4.0054   -0.5599    0.1034 C   0  0  0  0  0  0  0  0  0  0  0  0
    3.1335   -0.8657   -0.9385 C   0  0  0  0  0  0  0  0  0  0  0  0
    1.7665   -0.6859   -0.7966 C   0  0  0  0  0  0  0  0  0  0  0  0
    5.4914   -0.5379   -0.1290 C   0  0  0  0  0  0  0  0  0  0  0  0
    5.9041    0.8946   -0.5204 C   0  0  0  0  0  0  0  0  0  0  0  0
   -0.6568    1.0165   -0.5345 C   0  0  0  0  0  0  0  0  0  0  0  0
    0.1986    2.2556   -0.6183 C   0  0  0  0  0  0  0  0  0  0  0  0
   -0.1763    3.4728   -0.2508 C   0  0  0  0  0  0  0  0  0  0  0  0
    0.7475    4.6539   -0.3220 C   0  0  0  0  0  0  0  0  0  0  0  0
    0.3517    5.5844   -1.4792 C   0  0  0  0  0  0  0  0  0  0  0  0
    1.2899    6.7858   -1.5711 C   0  0  0  0  0  0  0  0  0  0  0  0
   -1.9793    1.3346   -0.2125 O   0  0  0  0  0  0  0  0  0  0  0  0
   -2.1085    1.2232    2.5915 O   0  0  0  0  0  0  0  0  0  0  0  0
   -0.2708    0.6038    1.4218 H   0  0  0  0  0  0  0  0  0  0  0  0
   -2.1512    1.6081    1.7027 H   0  0  0  0  0  0  0  0  0  0  0  0
    1.7149    0.4153    2.4109 H   0  0  0  0  0  0  0  0  0  0  0  0
    4.1432    0.0867    2.1483 H   0  0  0  0  0  0  0  0  0  0  0  0
    3.5289   -1.2308   -1.8814 H   0  0  0  0  0  0  0  0  0  0  0  0
    1.1056   -0.9163   -1.6242 H   0  0  0  0  0  0  0  0  0  0  0  0
    5.7788   -1.2275   -0.9275 H   0  0  0  0  0  0  0  0  0  0  0  0
    6.0442   -0.8085    0.7739 H   0  0  0  0  0  0  0  0  0  0  0  0
    5.5826    1.5967    0.2606 H   0  0  0  0  0  0  0  0  0  0  0  0
    5.3639    0.6830   -2.5408 H   0  0  0  0  0  0  0  0  0  0  0  0
    7.1253    2.6475   -1.8394 H   0  0  0  0  0  0  0  0  0  0  0  0
   -0.6133    0.4606   -1.4884 H   0  0  0  0  0  0  0  0  0  0  0  0
    1.2131    2.0712   -0.9573 H   0  0  0  0  0  0  0  0  0  0  0  0
   -1.1883    3.6685    0.0921 H   0  0  0  0  0  0  0  0  0  0  0  0
    0.6998    5.2114    0.6195 H   0  0  0  0  0  0  0  0  0  0  0  0
    1.7785    4.3136   -0.4655 H   0  0  0  0  0  0  0  0  0  0  0  0
    0.3838    5.0210   -2.4177 H   0  0  0  0  0  0  0  0  0  0  0  0
   -0.6768    5.9312   -1.3337 H   0  0  0  0  0  0  0  0  0  0  0  0
    0.9953    7.4312   -2.3996 H   0  0  0  0  0  0  0  0  0  0  0  0
    1.2573    7.3681   -0.6491 H   0  0  0  0  0  0  0  0  0  0  0  0
    2.3168    6.4565   -1.7357 H   0  0  0  0  0  0  0  0  0  0  0  0
   -2.7173   -0.5948    1.7830 H   0  0  0  0  0  0  0  0  0  0  0  0
   -2.6118    1.8006    3.1672 H   0  0  0  0  0  0  0  0  0  0  0  0
   -2.6090   -1.0638    0.9450 O   0  0  0  0  0  0  0  0  0  0  0  0
   -2.4601    0.4914   -0.0502 H   0  0  0  0  0  0  0  0  0  0  0  0
   -1.6456   -1.1159    0.8315 H   0  0  0  0  0  0  0  0  0  0  0  0
    5.2491    1.3060   -1.7548 N   0  0  0  0  0  0  0  0  0  0  0  0
    7.4248    1.0030   -0.6645 C   0  0  0  0  0  0  0  0  0  0  0  0
    8.1837    0.2339   -0.1123 O   0  0  0  0  0  0  0  0  0  0  0  0
    3.3881    2.1455   -3.0318 C   0  0  0  0  0  0  0  0  0  0  0  0
    4.1328    2.0899   -1.7148 C   0  0  0  0  0  0  0  0  0  0  0  0
    3.7869    2.7074   -0.7318 O   0  0  0  0  0  0  0  0  0  0  0  0
    2.7967    1.2361   -3.1375 H   0  0  0  0  0  0  0  0  0  0  0  0
    4.0772    2.2150   -3.8716 H   0  0  0  0  0  0  0  0  0  0  0  0
    2.7178    3.0022   -3.0286 H   0  0  0  0  0  0  0  0  0  0  0  0
    7.8169    2.0261   -1.4488 N   0  0  0  0  0  0  0  0  0  0  0  0
    9.2215    2.3326   -1.6515 C   0  0  0  0  0  0  0  0  0  0  0  0
    9.4552    3.3169   -1.2383 H   0  0  0  0  0  0  0  0  0  0  0  0
    9.4561    2.3240   -2.7185 H   0  0  0  0  0  0  0  0  0  0  0  0
    9.8108    1.5713   -1.1401 H   0  0  0  0  0  0  0  0  0  0  0  0
  1  2  1  0  0  0  0
  2  3  4  0  0  0  0
  3  4  4  0  0  0  0
  4  5  4  0  0  0  0
  5  6  4  0  0  0  0
  2  7  4  0  0  0  0
  6  7  4  0  0  0  0
  5  8  1  0  0  0  0
  8  9  1  0  0  0  0
  1 10  1  0  0  0  0
 10 11  1  0  0  0  0
 11 12  2  0  0  0  0
 12 13  1  0  0  0  0
 13 14  1  0  0  0  0
 14 15  1  0  0  0  0
 10 16  1  0  0  0  0
  1 18  1  0  0  0  0
 17 19  1  0  0  0  0
  3 20  1  0  0  0  0
  4 21  1  0  0  0  0
  6 22  1  0  0  0  0
  7 23  1  0  0  0  0
  8 24  1  0  0  0  0
  8 25  1  0  0  0  0
  9 26  1  0  0  0  0
 10 29  1  0  0  0  0
 11 30  1  0  0  0  0
 12 31  1  0  0  0  0
 13 32  1  0  0  0  0
 13 33  1  0  0  0  0
 14 34  1  0  0  0  0
 14 35  1  0  0  0  0
 15 36  1  0  0  0  0
 15 37  1  0  0  0  0
 15 38  1  0  0  0  0
 17 40  1  0  0  0  0
 39 41  1  0  0  0  0
 16 42  1  0  0  0  0
 41 43  1  0  0  0  0
  9 44  1  0  0  0  0
 27 44  1  0  0  0  0
  9 45  1  0  0  0  0
 45 46  2  0  0  0  0
 44 48  1  0  0  0  0
 47 48  1  0  0  0  0
 48 49  2  0  0  0  0
 47 50  1  0  0  0  0
 47 51  1  0  0  0  0
 47 52  1  0  0  0  0
 28 53  1  0  0  0  0
 45 53  4  0  0  0  0
 53 54  1  0  0  0  0
 54 55  1  0  0  0  0
 54 56  1  0  0  0  0
 54 57  1  0  0  0  0
M  END
