 xtb: 6.7.1pre (5071a88)
          08312613163D

 57 54  0     0  0            999 V2000
   -0.1234   -0.6575    0.3548 N   0  0  0  0  0  0  0  0  0  0  0  0
    1.2507   -0.5474    0.3799 C   0  0  0  0  0  0  0  0  0  0  0  0
    1.8621    0.3832    1.2229 C   0  0  0  0  0  0  0  0  0  0  0  0
    3.2184    0.6147    1.1408 C   0  0  0  0  0  0  0  0  0  0  0  0
    4.0113   -0.0754    0.2304 C   0  0  0  0  0  0  0  0  0  0  0  0
    3.4079   -1.0331   -0.5752 C   0  0  0  0  0  0  0  0  0  0  0  0
    2.0493   -1.2710   -0.5053 C   0  0  0  0  0  0  0  0  0  0  0  0
    5.4642    0.2688    0.0703 C   0  0  0  0  0  0  0  0  0  0  0  0
    5.6153    1.5498   -0.7559 C   0  0  0  0  0  0  0  0  0  0  0  0
   -0.9922    0.9649   -1.1498 C   0  0  0  0  0  0  0  0  0  0  0  0
    0.2320    1.7483   -1.1123 C   0  0  0  0  0  0  0  0  0  0  0  0
    0.3940    2.7985   -0.3034 C   0  0  0  0  0  0  0  0  0  0  0  0
    1.6274    3.6167   -0.2112 C   0  0  0  0  0  0  0  0  0  0  0  0
    1.3832    5.0668   -0.6497 C   0  0  0  0  0  0  0  0  0  0  0  0
    2.6719    5.8754   -0.5826 C   0  0  0  0  0  0  0  0  0  0  0  0
   -2.0249    1.2429   -0.5519 O   0  0  0  0  0  0  0  0  0  0  0  0
   -3.6105   -0.8089    0.3800 O   0  0  0  0  0  0  0  0  0  0  0  0
   -0.6190   -0.3055    1.1756 H   0  0  0  0  0  0  0  0  0  0  0  0
   -0.4999   -1.5212   -0.0060 H   0  0  0  0  0  0  0  0  0  0  0  0
    1.2534    0.9196    1.9347 H   0  0  0  0  0  0  0  0  0  0  0  0
    3.6755    1.3444    1.7936 H   0  0  0  0  0  0  0  0  0  0  0  0
    4.0096   -1.6109   -1.2646 H   0  0  0  0  0  0  0  0  0  0  0  0
    1.5943   -2.0140   -1.1455 H   0  0  0  0  0  0  0  0  0  0  0  0
    6.0071   -0.5335   -0.4326 H   0  0  0  0  0  0  0  0  0  0  0  0
    5.9366    0.4330    1.0394 H   0  0  0  0  0  0  0  0  0  0  0  0
    5.1921    2.4080   -0.2193 H   0  0  0  0  0  0  0  0  0  0  0  0
    4.7102    0.4824   -2.3296 H   0  0  0  0  0  0  0  0  0  0  0  0
    6.4660    3.6654   -1.7156 H   0  0  0  0  0  0  0  0  0  0  0  0
   -0.9951    0.1551   -1.8985 H   0  0  0  0  0  0  0  0  0  0  0  0
    1.0362    1.4180   -1.7531 H   0  0  0  0  0  0  0  0  0  0  0  0
   -0.4346    3.1023    0.3240 H   0  0  0  0  0  0  0  0  0  0  0  0
    1.9680    3.6230    0.8277 H   0  0  0  0  0  0  0  0  0  0  0  0
    2.4154    3.1824   -0.8273 H   0  0  0  0  0  0  0  0  0  0  0  0
    1.0051    5.0681   -1.6740 H   0  0  0  0  0  0  0  0  0  0  0  0
    0.6218    5.5193   -0.0105 H   0  0  0  0  0  0  0  0  0  0  0  0
    2.5020    6.8926   -0.9272 H   0  0  0  0  0  0  0  0  0  0  0  0
    3.0447    5.9163    0.4387 H   0  0  0  0  0  0  0  0  0  0  0  0
    3.4327    5.4181   -1.2105 H   0  0  0  0  0  0  0  0  0  0  0  0
   -3.1283   -0.1073   -0.0962 H   0  0  0  0  0  0  0  0  0  0  0  0
   -4.5406   -0.6668    0.1983 H   0  0  0  0  0  0  0  0  0  0  0  0
   -1.9322    0.5346    2.2035 O   0  0  0  0  0  0  0  0  0  0  0  0
   -2.0237    1.2476    1.5602 H   0  0  0  0  0  0  0  0  0  0  0  0
   -2.6193   -0.1028    1.9592 H   0  0  0  0  0  0  0  0  0  0  0  0
    4.8795    1.4206   -2.0026 N   0  0  0  0  0  0  0  0  0  0  0  0
    7.1007    1.8481   -1.0594 C   0  0  0  0  0  0  0  0  0  0  0  0
    7.9850    1.0354   -0.8881 O   0  0  0  0  0  0  0  0  0  0  0  0
    3.5481    2.0990   -3.8826 C   0  0  0  0  0  0  0  0  0  0  0  0
    4.3780    2.4695   -2.6757 C   0  0  0  0  0  0  0  0  0  0  0  0
    4.5895    3.6237   -2.3370 O   0  0  0  0  0  0  0  0  0  0  0  0
    2.8397    1.3116   -3.6366 H   0  0  0  0  0  0  0  0  0  0  0  0
    4.2028    1.7440   -4.6765 H   0  0  0  0  0  0  0  0  0  0  0  0
    3.0138    2.9763   -4.2354 H   0  0  0  0  0  0  0  0  0  0  0  0
    7.2825    3.0905   -1.5331 N   0  0  0  0  0  0  0  0  0  0  0  0
    8.5720    3.5826   -1.9512 C   0  0  0  0  0  0  0  0  0  0  0  0
    8.8160    4.5029   -1.4187 H   0  0  0  0  0  0  0  0  0  0  0  0
    8.5824    3.7799   -3.0250 H   0  0  0  0  0  0  0  0  0  0  0  0
    9.3123    2.8193   -1.7165 H   0  0  0  0  0  0  0  0  0  0  0  0
  1  2  1  0  0  0  0
  2  3  4  0  0  0  0
  3  4  4  0  0  0  0
  4  5  4  0  0  0  0
  5  6  4  0  0  0  0
  2  7  4  0  0  0  0
  6  7  4  0  0  0  0
  5  8  1  0  0  0  0
  8  9  1  0  0  0  0
 10 11  1  0  0  0  0
 11 12  2  0  0  0  0
 12 13  1  0  0  0  0
 13 14  1  0  0  0  0
 14 15  1  0  0  0  0
 10 16  2  0  0  0  0
  1 18  1  0  0  0  0
  1 19  1  0  0  0  0
  3 20  1  0  0  0  0
  4 21  1  0  0  0  0
  6 22  1  0  0  0  0
  7 23  1  0  0  0  0
  8 24  1  0  0  0  0
  8 25  1  0  0  0  0
  9 26  1  0  0  0  0
 10 29  1  0  0  0  0
 11 30  1  0  0  0  0
 12 31  1  0  0  0  0
 13 32  1  0  0  0  0
 13 33  1  0  0  0  0
 14 34  1  0  0  0  0
 14 35  1  0  0  0  0
 15 36  1  0  0  0  0
 15 37  1  0  0  0  0
 15 38  1  0  0  0  0
 17 39  1  0  0  0  0
 17 40  1  0  0  0  0
 41 42  1  0  0  0  0
 41 43  1  0  0  0  0
  9 44  1  0  0  0  0
 27 44  1  0  0  0  0
  9 45  1  0  0  0  0
 45 46  2  0  0  0  0
 44 48  4  0  0  0  0
 47 48  1  0  0  0  0
 48 49  2  0  0  0  0
 47 50  1  0  0  0  0
 47 51  1  0  0  0  0
 47 52  1  0  0  0  0
 28 53  1  0  0  0  0
 45 53  4  0  0  0  0
 53 54  1  0  0  0  0
 54 55  1  0  0  0  0
 54 56  1  0  0  0  0
 54 57  1  0  0  0  0
M  END
