 xtb: 6.7.1pre (5071a88)
          08202618233D

 57 54  0     0  0            999 V2000
   -0.1224    0.2856    0.5588 N   0  0  0  0  0  0  0  0  0  0  0  0
    1.2488    0.1075    0.4971 C   0  0  0  0  0  0  0  0  0  0  0  0
    2.1427    0.8782    1.2453 C   0  0  0  0  0  0  0  0  0  0  0  0
    3.4997    0.6525    1.1557 C   0  0  0  0  0  0  0  0  0  0  0  0
    4.0118   -0.3404    0.3278 C   0  0  0  0  0  0  0  0  0  0  0  0
    3.1194   -1.1458   -0.3679 C   0  0  0  0  0  0  0  0  0  0  0  0
    1.7556   -0.9421   -0.2772 C   0  0  0  0  0  0  0  0  0  0  0  0
    5.4934   -0.4609    0.1242 C   0  0  0  0  0  0  0  0  0  0  0  0
    5.9379    0.5873   -0.9000 C   0  0  0  0  0  0  0  0  0  0  0  0
   -0.6998    1.4190    0.4342 C   0  0  0  0  0  0  0  0  0  0  0  0
   -0.1076    2.6685    0.0403 C   0  0  0  0  0  0  0  0  0  0  0  0
   -0.8054    3.8001   -0.1000 C   0  0  0  0  0  0  0  0  0  0  0  0
   -0.2013    5.0683   -0.5860 C   0  0  0  0  0  0  0  0  0  0  0  0
   -0.9034    5.5734   -1.8533 C   0  0  0  0  0  0  0  0  0  0  0  0
   -0.2772    6.8704   -2.3491 C   0  0  0  0  0  0  0  0  0  0  0  0
    2.6030    3.1570   -1.6805 O   0  0  0  0  0  0  0  0  0  0  0  0
    1.2838    0.8232   -2.8146 O   0  0  0  0  0  0  0  0  0  0  0  0
   -1.0339   -0.8622   -0.6516 H   0  0  0  0  0  0  0  0  0  0  0  0
    2.1518    2.4887   -2.2149 H   0  0  0  0  0  0  0  0  0  0  0  0
    1.7587    1.6477    1.8984 H   0  0  0  0  0  0  0  0  0  0  0  0
    4.1776    1.2702    1.7267 H   0  0  0  0  0  0  0  0  0  0  0  0
    3.4903   -1.9507   -0.9872 H   0  0  0  0  0  0  0  0  0  0  0  0
    1.0744   -1.5797   -0.8212 H   0  0  0  0  0  0  0  0  0  0  0  0
    5.7716   -1.4536   -0.2346 H   0  0  0  0  0  0  0  0  0  0  0  0
    6.0336   -0.2766    1.0539 H   0  0  0  0  0  0  0  0  0  0  0  0
    5.6084    1.5847   -0.5812 H   0  0  0  0  0  0  0  0  0  0  0  0
    5.1076   -0.6265   -2.4163 H   0  0  0  0  0  0  0  0  0  0  0  0
    7.1795    2.3725   -2.0586 H   0  0  0  0  0  0  0  0  0  0  0  0
   -1.7782    1.4064    0.5754 H   0  0  0  0  0  0  0  0  0  0  0  0
    0.9473    2.6696   -0.1958 H   0  0  0  0  0  0  0  0  0  0  0  0
   -1.8654    3.8228    0.1276 H   0  0  0  0  0  0  0  0  0  0  0  0
   -0.2926    5.8336    0.1921 H   0  0  0  0  0  0  0  0  0  0  0  0
    0.8575    4.9083   -0.7971 H   0  0  0  0  0  0  0  0  0  0  0  0
   -0.8214    4.8099   -2.6305 H   0  0  0  0  0  0  0  0  0  0  0  0
   -1.9661    5.7308   -1.6477 H   0  0  0  0  0  0  0  0  0  0  0  0
   -0.7636    7.2045   -3.2637 H   0  0  0  0  0  0  0  0  0  0  0  0
   -0.3747    7.6545   -1.5998 H   0  0  0  0  0  0  0  0  0  0  0  0
    0.7814    6.7228   -2.5555 H   0  0  0  0  0  0  0  0  0  0  0  0
    0.3504    0.7152   -3.0268 H   0  0  0  0  0  0  0  0  0  0  0  0
    1.4350    0.2974   -2.0168 H   0  0  0  0  0  0  0  0  0  0  0  0
   -1.3491   -1.3503   -1.4384 O   0  0  0  0  0  0  0  0  0  0  0  0
    3.4976    3.2195   -2.0345 H   0  0  0  0  0  0  0  0  0  0  0  0
   -2.0550   -1.9366   -1.1297 H   0  0  0  0  0  0  0  0  0  0  0  0
    5.3153    0.3322   -2.1867 N   0  0  0  0  0  0  0  0  0  0  0  0
    7.4706    0.6170   -1.0723 C   0  0  0  0  0  0  0  0  0  0  0  0
    8.2026   -0.2651   -0.6755 O   0  0  0  0  0  0  0  0  0  0  0  0
    4.2227    0.8735   -4.2612 C   0  0  0  0  0  0  0  0  0  0  0  0
    4.9764    1.3174   -3.0366 C   0  0  0  0  0  0  0  0  0  0  0  0
    5.2440    2.4888   -2.7989 O   0  0  0  0  0  0  0  0  0  0  0  0
    4.3017    1.6349   -5.0327 H   0  0  0  0  0  0  0  0  0  0  0  0
    3.1710    0.7592   -3.9968 H   0  0  0  0  0  0  0  0  0  0  0  0
    4.5973   -0.0749   -4.6366 H   0  0  0  0  0  0  0  0  0  0  0  0
    7.8786    1.7235   -1.7149 N   0  0  0  0  0  0  0  0  0  0  0  0
    9.2615    1.9744   -2.0382 C   0  0  0  0  0  0  0  0  0  0  0  0
    9.5797    2.9315   -1.6215 H   0  0  0  0  0  0  0  0  0  0  0  0
    9.4115    1.9893   -3.1196 H   0  0  0  0  0  0  0  0  0  0  0  0
    9.8556    1.1726   -1.6020 H   0  0  0  0  0  0  0  0  0  0  0  0
  1  2  1  0  0  0  0
  2  3  4  0  0  0  0
  3  4  4  0  0  0  0
  4  5  4  0  0  0  0
  5  6  4  0  0  0  0
  2  7  4  0  0  0  0
  6  7  4  0  0  0  0
  5  8  1  0  0  0  0
  8  9  1  0  0  0  0
  1 10  2  0  0  0  0
 10 11  1  0  0  0  0
 11 12  2  0  0  0  0
 12 13  1  0  0  0  0
 13 14  1  0  0  0  0
 14 15  1  0  0  0  0
 16 19  1  0  0  0  0
  3 20  1  0  0  0  0
  4 21  1  0  0  0  0
  6 22  1  0  0  0  0
  7 23  1  0  0  0  0
  8 24  1  0  0  0  0
  8 25  1  0  0  0  0
  9 26  1  0  0  0  0
 10 29  1  0  0  0  0
 11 30  1  0  0  0  0
 12 31  1  0  0  0  0
 13 32  1  0  0  0  0
 13 33  1  0  0  0  0
 14 34  1  0  0  0  0
 14 35  1  0  0  0  0
 15 36  1  0  0  0  0
 15 37  1  0  0  0  0
 15 38  1  0  0  0  0
 17 39  1  0  0  0  0
 17 40  1  0  0  0  0
 18 41  1  0  0  0  0
 16 42  1  0  0  0  0
 41 43  1  0  0  0  0
  9 44  1  0  0  0  0
 27 44  1  0  0  0  0
  9 45  1  0  0  0  0
 45 46  2  0  0  0  0
 44 48  4  0  0  0  0
 47 48  1  0  0  0  0
 48 49  2  0  0  0  0
 47 50  1  0  0  0  0
 47 51  1  0  0  0  0
 47 52  1  0  0  0  0
 28 53  1  0  0  0  0
 45 53  4  0  0  0  0
 53 54  1  0  0  0  0
 54 55  1  0  0  0  0
 54 56  1  0  0  0  0
 54 57  1  0  0  0  0
M  END
