 xtb: 6.7.1pre (5071a88)
          08312613173D

 57 54  0     0  0            999 V2000
   -0.1335   -0.6335    0.6822 N   0  0  0  0  0  0  0  0  0  0  0  0
    1.2414   -0.5310    0.7226 C   0  0  0  0  0  0  0  0  0  0  0  0
    1.8449    0.5124    1.4277 C   0  0  0  0  0  0  0  0  0  0  0  0
    3.2061    0.7138    1.3513 C   0  0  0  0  0  0  0  0  0  0  0  0
    4.0106   -0.1136    0.5749 C   0  0  0  0  0  0  0  0  0  0  0  0
    3.4124   -1.1702   -0.1001 C   0  0  0  0  0  0  0  0  0  0  0  0
    2.0495   -1.3846   -0.0273 C   0  0  0  0  0  0  0  0  0  0  0  0
    5.4749    0.1822    0.4184 C   0  0  0  0  0  0  0  0  0  0  0  0
    5.6750    1.4313   -0.4437 C   0  0  0  0  0  0  0  0  0  0  0  0
   -0.9334    0.5518   -1.1789 C   0  0  0  0  0  0  0  0  0  0  0  0
    0.1904    1.4765   -1.1346 C   0  0  0  0  0  0  0  0  0  0  0  0
    0.1224    2.6885   -0.5799 C   0  0  0  0  0  0  0  0  0  0  0  0
    1.2522    3.6498   -0.5204 C   0  0  0  0  0  0  0  0  0  0  0  0
    1.0228    4.8385   -1.4648 C   0  0  0  0  0  0  0  0  0  0  0  0
    2.2044    5.7986   -1.4288 C   0  0  0  0  0  0  0  0  0  0  0  0
   -2.0674    0.7902   -0.7786 O   0  0  0  0  0  0  0  0  0  0  0  0
   -2.7974   -1.7293    0.4555 O   0  0  0  0  0  0  0  0  0  0  0  0
   -0.6345   -0.1404    1.4101 H   0  0  0  0  0  0  0  0  0  0  0  0
   -0.5398   -1.5359    0.4707 H   0  0  0  0  0  0  0  0  0  0  0  0
    1.2276    1.1654    2.0266 H   0  0  0  0  0  0  0  0  0  0  0  0
    3.6552    1.5286    1.9005 H   0  0  0  0  0  0  0  0  0  0  0  0
    4.0221   -1.8419   -0.6892 H   0  0  0  0  0  0  0  0  0  0  0  0
    1.5981   -2.2082   -0.5615 H   0  0  0  0  0  0  0  0  0  0  0  0
    5.9964   -0.6530   -0.0521 H   0  0  0  0  0  0  0  0  0  0  0  0
    5.9426    0.3610    1.3878 H   0  0  0  0  0  0  0  0  0  0  0  0
    5.2897    2.3217    0.0680 H   0  0  0  0  0  0  0  0  0  0  0  0
    4.7447    0.3651   -2.0071 H   0  0  0  0  0  0  0  0  0  0  0  0
    6.6063    3.4945   -1.4415 H   0  0  0  0  0  0  0  0  0  0  0  0
   -0.7460   -0.3593   -1.7709 H   0  0  0  0  0  0  0  0  0  0  0  0
    1.1178    1.1198   -1.5580 H   0  0  0  0  0  0  0  0  0  0  0  0
   -0.8228    3.0230   -0.1711 H   0  0  0  0  0  0  0  0  0  0  0  0
    1.3487    4.0305    0.4994 H   0  0  0  0  0  0  0  0  0  0  0  0
    2.1845    3.1527   -0.7920 H   0  0  0  0  0  0  0  0  0  0  0  0
    0.8875    4.4608   -2.4806 H   0  0  0  0  0  0  0  0  0  0  0  0
    0.1068    5.3606   -1.1790 H   0  0  0  0  0  0  0  0  0  0  0  0
    2.0526    6.6148   -2.1311 H   0  0  0  0  0  0  0  0  0  0  0  0
    2.3235    6.2201   -0.4330 H   0  0  0  0  0  0  0  0  0  0  0  0
    3.1218    5.2780   -1.6931 H   0  0  0  0  0  0  0  0  0  0  0  0
   -2.9131   -1.2665    1.2918 H   0  0  0  0  0  0  0  0  0  0  0  0
   -2.8291   -1.0363   -0.2159 H   0  0  0  0  0  0  0  0  0  0  0  0
   -2.4581    0.8477    1.9268 O   0  0  0  0  0  0  0  0  0  0  0  0
   -3.1236    1.4421    2.2761 H   0  0  0  0  0  0  0  0  0  0  0  0
   -2.4268    1.0004    0.9657 H   0  0  0  0  0  0  0  0  0  0  0  0
    4.9277    1.3019   -1.6836 N   0  0  0  0  0  0  0  0  0  0  0  0
    7.1690    1.6618   -0.7614 C   0  0  0  0  0  0  0  0  0  0  0  0
    8.0206    0.8169   -0.5809 O   0  0  0  0  0  0  0  0  0  0  0  0
    3.6240    2.0084   -3.5758 C   0  0  0  0  0  0  0  0  0  0  0  0
    4.4544    2.3597   -2.3641 C   0  0  0  0  0  0  0  0  0  0  0  0
    4.6935    3.5090   -2.0270 O   0  0  0  0  0  0  0  0  0  0  0  0
    2.9052    1.2271   -3.3414 H   0  0  0  0  0  0  0  0  0  0  0  0
    4.2787    1.6541   -4.3702 H   0  0  0  0  0  0  0  0  0  0  0  0
    3.1018    2.8953   -3.9232 H   0  0  0  0  0  0  0  0  0  0  0  0
    7.3982    2.8866   -1.2605 N   0  0  0  0  0  0  0  0  0  0  0  0
    8.7052    3.3196   -1.6898 C   0  0  0  0  0  0  0  0  0  0  0  0
    8.9894    4.2363   -1.1711 H   0  0  0  0  0  0  0  0  0  0  0  0
    8.7197    3.5011   -2.7664 H   0  0  0  0  0  0  0  0  0  0  0  0
    9.4142    2.5297   -1.4466 H   0  0  0  0  0  0  0  0  0  0  0  0
  1  2  1  0  0  0  0
  2  3  4  0  0  0  0
  3  4  4  0  0  0  0
  4  5  4  0  0  0  0
  5  6  4  0  0  0  0
  2  7  4  0  0  0  0
  6  7  4  0  0  0  0
  5  8  1  0  0  0  0
  8  9  1  0  0  0  0
 10 11  1  0  0  0  0
 11 12  2  0  0  0  0
 12 13  1  0  0  0  0
 13 14  1  0  0  0  0
 14 15  1  0  0  0  0
 10 16  2  0  0  0  0
  1 18  1  0  0  0  0
  1 19  1  0  0  0  0
  3 20  1  0  0  0  0
  4 21  1  0  0  0  0
  6 22  1  0  0  0  0
  7 23  1  0  0  0  0
  8 24  1  0  0  0  0
  8 25  1  0  0  0  0
  9 26  1  0  0  0  0
 10 29  1  0  0  0  0
 11 30  1  0  0  0  0
 12 31  1  0  0  0  0
 13 32  1  0  0  0  0
 13 33  1  0  0  0  0
 14 34  1  0  0  0  0
 14 35  1  0  0  0  0
 15 36  1  0  0  0  0
 15 37  1  0  0  0  0
 15 38  1  0  0  0  0
 17 39  1  0  0  0  0
 17 40  1  0  0  0  0
 41 42  1  0  0  0  0
 41 43  1  0  0  0  0
  9 44  1  0  0  0  0
 27 44  1  0  0  0  0
  9 45  1  0  0  0  0
 45 46  2  0  0  0  0
 44 48  4  0  0  0  0
 47 48  1  0  0  0  0
 48 49  2  0  0  0  0
 47 50  1  0  0  0  0
 47 51  1  0  0  0  0
 47 52  1  0  0  0  0
 28 53  1  0  0  0  0
 45 53  4  0  0  0  0
 53 54  1  0  0  0  0
 54 55  1  0  0  0  0
 54 56  1  0  0  0  0
 54 57  1  0  0  0  0
M  END
