 xtb: 6.7.1pre (5071a88)
          08312613173D

 57 54  0     0  0            999 V2000
   -0.0979   -0.6589    0.3319 N   0  0  0  0  0  0  0  0  0  0  0  0
    1.2768   -0.5519    0.3690 C   0  0  0  0  0  0  0  0  0  0  0  0
    1.8854    0.3749    1.2180 C   0  0  0  0  0  0  0  0  0  0  0  0
    3.2433    0.6020    1.1461 C   0  0  0  0  0  0  0  0  0  0  0  0
    4.0400   -0.0895    0.2401 C   0  0  0  0  0  0  0  0  0  0  0  0
    3.4386   -1.0429   -0.5725 C   0  0  0  0  0  0  0  0  0  0  0  0
    2.0787   -1.2761   -0.5126 C   0  0  0  0  0  0  0  0  0  0  0  0
    5.4955    0.2469    0.0871 C   0  0  0  0  0  0  0  0  0  0  0  0
    5.6607    1.5408   -0.7170 C   0  0  0  0  0  0  0  0  0  0  0  0
   -0.9501    0.9479   -1.1703 C   0  0  0  0  0  0  0  0  0  0  0  0
    0.2527    1.7620   -1.0890 C   0  0  0  0  0  0  0  0  0  0  0  0
    0.3598    2.8172   -0.2780 C   0  0  0  0  0  0  0  0  0  0  0  0
    1.5672    3.6706   -0.1550 C   0  0  0  0  0  0  0  0  0  0  0  0
    1.3145    5.0820   -0.7033 C   0  0  0  0  0  0  0  0  0  0  0  0
    2.5741    5.9331   -0.6135 C   0  0  0  0  0  0  0  0  0  0  0  0
   -2.0089    1.1977   -0.6058 O   0  0  0  0  0  0  0  0  0  0  0  0
   -3.5556   -0.9190    0.2329 O   0  0  0  0  0  0  0  0  0  0  0  0
   -0.6029   -0.3153    1.1508 H   0  0  0  0  0  0  0  0  0  0  0  0
   -0.4716   -1.5207   -0.0370 H   0  0  0  0  0  0  0  0  0  0  0  0
    1.2738    0.9135    1.9257 H   0  0  0  0  0  0  0  0  0  0  0  0
    3.6973    1.3299    1.8028 H   0  0  0  0  0  0  0  0  0  0  0  0
    4.0436   -1.6200   -1.2596 H   0  0  0  0  0  0  0  0  0  0  0  0
    1.6255   -2.0156   -1.1581 H   0  0  0  0  0  0  0  0  0  0  0  0
    6.0307   -0.5510   -0.4308 H   0  0  0  0  0  0  0  0  0  0  0  0
    5.9692    0.3886    1.0592 H   0  0  0  0  0  0  0  0  0  0  0  0
    5.3013    2.4039   -0.1432 H   0  0  0  0  0  0  0  0  0  0  0  0
    4.6407    0.5528   -2.2721 H   0  0  0  0  0  0  0  0  0  0  0  0
    6.5586    3.6431   -1.6642 H   0  0  0  0  0  0  0  0  0  0  0  0
   -0.9102    0.1482   -1.9289 H   0  0  0  0  0  0  0  0  0  0  0  0
    1.0870    1.4520   -1.7006 H   0  0  0  0  0  0  0  0  0  0  0  0
   -0.4969    3.1025    0.3196 H   0  0  0  0  0  0  0  0  0  0  0  0
    1.8400    3.7527    0.9002 H   0  0  0  0  0  0  0  0  0  0  0  0
    2.4031    3.2211   -0.6922 H   0  0  0  0  0  0  0  0  0  0  0  0
    0.9997    5.0051   -1.7462 H   0  0  0  0  0  0  0  0  0  0  0  0
    0.5029    5.5516   -0.1431 H   0  0  0  0  0  0  0  0  0  0  0  0
    2.3973    6.9197   -1.0350 H   0  0  0  0  0  0  0  0  0  0  0  0
    2.8814    6.0523    0.4233 H   0  0  0  0  0  0  0  0  0  0  0  0
    3.3854    5.4610   -1.1624 H   0  0  0  0  0  0  0  0  0  0  0  0
   -3.0834   -0.1903   -0.2121 H   0  0  0  0  0  0  0  0  0  0  0  0
   -4.4850   -0.7981    0.0335 H   0  0  0  0  0  0  0  0  0  0  0  0
   -1.9902    0.4484    2.1416 O   0  0  0  0  0  0  0  0  0  0  0  0
   -2.0856    1.1710    1.5096 H   0  0  0  0  0  0  0  0  0  0  0  0
   -2.6415   -0.2101    1.8578 H   0  0  0  0  0  0  0  0  0  0  0  0
    4.8618    1.4746   -1.9296 N   0  0  0  0  0  0  0  0  0  0  0  0
    7.1411    1.7816   -1.0887 C   0  0  0  0  0  0  0  0  0  0  0  0
    7.9945    0.9254   -0.9854 O   0  0  0  0  0  0  0  0  0  0  0  0
    3.4681    2.2741   -3.7209 C   0  0  0  0  0  0  0  0  0  0  0  0
    4.3687    2.5630   -2.5433 C   0  0  0  0  0  0  0  0  0  0  0  0
    4.6454    3.6960   -2.1796 O   0  0  0  0  0  0  0  0  0  0  0  0
    2.9061    1.3553   -3.5760 H   0  0  0  0  0  0  0  0  0  0  0  0
    4.0785    2.1763   -4.6172 H   0  0  0  0  0  0  0  0  0  0  0  0
    2.7859    3.1078   -3.8631 H   0  0  0  0  0  0  0  0  0  0  0  0
    7.3555    3.0265   -1.5413 N   0  0  0  0  0  0  0  0  0  0  0  0
    8.6433    3.4697   -2.0157 C   0  0  0  0  0  0  0  0  0  0  0  0
    8.9580    4.3639   -1.4759 H   0  0  0  0  0  0  0  0  0  0  0  0
    8.6074    3.6934   -3.0839 H   0  0  0  0  0  0  0  0  0  0  0  0
    9.3579    2.6674   -1.8383 H   0  0  0  0  0  0  0  0  0  0  0  0
  1  2  1  0  0  0  0
  2  3  4  0  0  0  0
  3  4  4  0  0  0  0
  4  5  4  0  0  0  0
  5  6  4  0  0  0  0
  2  7  4  0  0  0  0
  6  7  4  0  0  0  0
  5  8  1  0  0  0  0
  8  9  1  0  0  0  0
 10 11  1  0  0  0  0
 11 12  2  0  0  0  0
 12 13  1  0  0  0  0
 13 14  1  0  0  0  0
 14 15  1  0  0  0  0
 10 16  2  0  0  0  0
  1 18  1  0  0  0  0
  1 19  1  0  0  0  0
  3 20  1  0  0  0  0
  4 21  1  0  0  0  0
  6 22  1  0  0  0  0
  7 23  1  0  0  0  0
  8 24  1  0  0  0  0
  8 25  1  0  0  0  0
  9 26  1  0  0  0  0
 10 29  1  0  0  0  0
 11 30  1  0  0  0  0
 12 31  1  0  0  0  0
 13 32  1  0  0  0  0
 13 33  1  0  0  0  0
 14 34  1  0  0  0  0
 14 35  1  0  0  0  0
 15 36  1  0  0  0  0
 15 37  1  0  0  0  0
 15 38  1  0  0  0  0
 17 39  1  0  0  0  0
 17 40  1  0  0  0  0
 41 42  1  0  0  0  0
 41 43  1  0  0  0  0
  9 44  1  0  0  0  0
 27 44  1  0  0  0  0
  9 45  1  0  0  0  0
 45 46  2  0  0  0  0
 44 48  4  0  0  0  0
 47 48  1  0  0  0  0
 48 49  2  0  0  0  0
 47 50  1  0  0  0  0
 47 51  1  0  0  0  0
 47 52  1  0  0  0  0
 28 53  1  0  0  0  0
 45 53  4  0  0  0  0
 53 54  1  0  0  0  0
 54 55  1  0  0  0  0
 54 56  1  0  0  0  0
 54 57  1  0  0  0  0
M  END
